/*---------------------------------------------------------------------------*\
| =========                 |                                                 |
| \\      /  F ield         | OpenFOAM: The Open Source CFD Toolbox           |
|  \\    /   O peration     | Version:  4.1                                   |
|   \\  /    A nd           | Web:      www.OpenFOAM.org                      |
|    \\/     M anipulation  |                                                 |
\*---------------------------------------------------------------------------*/
Build  : 4.1
Exec   : icoFoam
Date   : Apr 19 2020
Time   : 09:05:18
Host   : "caelinux-Precision-Tower-3620"
PID    : 4433
Case   : /home/caelinux2/Desktop/Dakota_Interfacing/OpenFOAM-Dakota_Interfacing/laminar_pipe/case1
nProcs : 1
sigFpe : Enabling floating point exception trapping (FOAM_SIGFPE).
fileModificationChecking : Monitoring run-time modified files using timeStampMaster
allowSystemOperations : Allowing user-supplied system call operations

// * * * * * * * * * * * * * * * * * * * * * * * * * * * * * * * * * * * * * //
Create time

Create mesh for time = 0


PISO: Operating solver in PISO mode

Reading transportProperties

Reading field p

Reading field U

Reading/calculating face flux field phi


Starting time loop

surfaceRegion inMassFlow:
    total faces  = 10
    total area   = 0.096574957


surfaceRegion outMassFlow:
    total faces  = 10
    total area   = 0.096574957


surfaceRegion inPre:
    total faces  = 10
    total area   = 0.096574957


surfaceRegion outMax:
    total faces  = 10
    total area   = 0.096574957


Time = 0.05

Courant Number mean: 0 max: 0
DILUPBiCG:  Solving for Ux, Initial residual = 1, Final residual = 2.5015622e-11, No Iterations 4
DILUPBiCG:  Solving for Uy, Initial residual = 0, Final residual = 0, No Iterations 0
GAMG:  Solving for p, Initial residual = 1, Final residual = 2.345334e-07, No Iterations 7
time step continuity errors : sum local = 1.6145667e-09, global = -6.2390441e-10, cumulative = -6.2390441e-10
ExecutionTime = 0.03 s  ClockTime = 0 s

fieldMinMax minmaxdomain write:
    min(p) = 0 at location (9.9841283 -0.43458731 0.05)
    max(p) = 1.7182203 at location (0.24960321 -0.048287478 0.05)
    min(U) = (-0.0059339379 -0.00213939 0) at location (0.049920641 -0.43458731 0.05)
    max(U) = (0.0072931002 8.1287582e-10 2.1619268e-33) at location (4.043572 -0.048287478 0.05)

surfaceRegion inMassFlow write:
    sum(inlet) of phi = -0.00069835501

surfaceRegion outMassFlow write:
    sum(outlet) of phi = 0.00069834298

surfaceRegion inPre write:
    weightedAverage(inlet) of phi = -6.9835501e-05
    weightedAverage(inlet) of U = (0.0078847044 3.066482e-11 0)
    weightedAverage(inlet) of p = 1.53103

surfaceRegion outMax write:
    max(outlet) of U = (0.0073727022 1.3523584e-06 0)
    max(outlet) of p = 0

Time = 0.1

Courant Number mean: 0.0036752354 max: 0.0075254597
DILUPBiCG:  Solving for Ux, Initial residual = 0.96252052, Final residual = 3.1709026e-09, No Iterations 3
DILUPBiCG:  Solving for Uy, Initial residual = 0.35799466, Final residual = 2.3293571e-09, No Iterations 3
GAMG:  Solving for p, Initial residual = 0.022170433, Final residual = 9.8808118e-07, No Iterations 6
time step continuity errors : sum local = 1.2957263e-08, global = 7.1326861e-09, cumulative = 6.5087817e-09
ExecutionTime = 0.03 s  ClockTime = 0 s

fieldMinMax minmaxdomain write:
    min(p) = 0 at location (9.9841283 -0.43458731 0.05)
    max(p) = 1.53103 at location (0 -0.43458731 0.05)
    min(U) = (0.0010433511 -0.0026776785 0) at location (0.049920641 -0.43458731 0.05)
    max(U) = (0.015012719 -3.4668238e-09 1.8414391e-33) at location (4.043572 -0.048287478 0.05)

surfaceRegion inMassFlow write:
    sum(inlet) of phi = -0.0014149203

surfaceRegion outMassFlow write:
    sum(outlet) of phi = 0.0014150578

surfaceRegion inPre write:
    weightedAverage(inlet) of phi = -0.00014149203
    weightedAverage(inlet) of U = (0.014651006 0 0)
    weightedAverage(inlet) of p = 1.53103

surfaceRegion outMax write:
    max(outlet) of U = (0.015066421 7.1002072e-07 0)
    max(outlet) of p = 0

Time = 0.15

Courant Number mean: 0.00736802 max: 0.010483193
DILUPBiCG:  Solving for Ux, Initial residual = 0.90608584, Final residual = 1.6975432e-09, No Iterations 3
DILUPBiCG:  Solving for Uy, Initial residual = 0.17248813, Final residual = 1.4334957e-09, No Iterations 3
GAMG:  Solving for p, Initial residual = 0.0040350305, Final residual = 4.1312275e-07, No Iterations 5
time step continuity errors : sum local = 5.2262389e-09, global = -3.3761015e-09, cumulative = 3.1326802e-09
ExecutionTime = 0.03 s  ClockTime = 0 s

fieldMinMax minmaxdomain write:
    min(p) = 0 at location (9.9841283 -0.43458731 0.05)
    max(p) = 1.53103 at location (0 -0.43458731 0.05)
    min(U) = (0.007828169 -0.0024345911 0) at location (0.049920641 -0.43458731 0.05)
    max(U) = (0.022674598 1.5739173e-09 1.8906736e-33) at location (4.043572 -0.048287478 0.05)

surfaceRegion inMassFlow write:
    sum(inlet) of phi = -0.0021157069

surfaceRegion outMassFlow write:
    sum(outlet) of phi = 0.0021156418

surfaceRegion inPre write:
    weightedAverage(inlet) of phi = -0.00021157069
    weightedAverage(inlet) of U = (0.021907407 0 0)
    weightedAverage(inlet) of p = 1.53103

surfaceRegion outMax write:
    max(outlet) of U = (0.022723726 1.0422187e-06 0)
    max(outlet) of p = 0

Time = 0.2

Courant Number mean: 0.010998899 max: 0.013728812
DILUPBiCG:  Solving for Ux, Initial residual = 0.84003477, Final residual = 1.3427986e-09, No Iterations 3
DILUPBiCG:  Solving for Uy, Initial residual = 0.023882746, Final residual = 2.6445083e-10, No Iterations 3
GAMG:  Solving for p, Initial residual = 0.00072034392, Final residual = 4.6007001e-07, No Iterations 4
time step continuity errors : sum local = 5.7930575e-09, global = 3.3417632e-09, cumulative = 6.4744434e-09
ExecutionTime = 0.03 s  ClockTime = 0 s

fieldMinMax minmaxdomain write:
    min(p) = 0 at location (9.9841283 -0.43458731 0.05)
    max(p) = 1.53103 at location (0 -0.43458731 0.05)
    min(U) = (0.014569176 -0.0021125112 0) at location (0.049920641 -0.43458731 0.05)
    max(U) = (0.03033729 -3.9757819e-10 1.880742e-33) at location (4.043572 -0.048287478 0.05)

surfaceRegion inMassFlow write:
    sum(inlet) of phi = -0.0028049777

surfaceRegion outMassFlow write:
    sum(outlet) of phi = 0.0028050422

surfaceRegion inPre write:
    weightedAverage(inlet) of phi = -0.00028049777
    weightedAverage(inlet) of U = (0.029044566 0 0)
    weightedAverage(inlet) of p = 1.53103

surfaceRegion outMax write:
    max(outlet) of U = (0.030379696 1.2033013e-06 0)
    max(outlet) of p = 0

Time = 0.25

Courant Number mean: 0.014571009 max: 0.017330345
DILUPBiCG:  Solving for Ux, Initial residual = 0.7683925, Final residual = 1.2802696e-09, No Iterations 3
DILUPBiCG:  Solving for Uy, Initial residual = 0.053480721, Final residual = 4.8760431e-10, No Iterations 3
GAMG:  Solving for p, Initial residual = 0.0002973039, Final residual = 6.3769467e-07, No Iterations 3
time step continuity errors : sum local = 8.0106574e-09, global = -4.4063302e-09, cumulative = 2.0681132e-09
ExecutionTime = 0.03 s  ClockTime = 0 s

fieldMinMax minmaxdomain write:
    min(p) = 0 at location (9.9841283 -0.43458731 0.05)
    max(p) = 1.53103 at location (0 -0.43458731 0.05)
    min(U) = (0.020793432 -0.001785918 0) at location (0.049920641 -0.43458731 0.05)
    max(U) = (0.037997116 1.8991368e-11 1.8820015e-33) at location (4.043572 -0.048287478 0.05)

surfaceRegion inMassFlow write:
    sum(inlet) of phi = -0.0034841076

surfaceRegion outMassFlow write:
    sum(outlet) of phi = 0.0034840227

surfaceRegion inPre write:
    weightedAverage(inlet) of phi = -0.00034841076
    weightedAverage(inlet) of U = (0.03607672 0 0)
    weightedAverage(inlet) of p = 1.53103

surfaceRegion outMax write:
    max(outlet) of U = (0.038034132 1.3139132e-06 0)
    max(outlet) of p = 0

Time = 0.3

Courant Number mean: 0.018089334 max: 0.020913675
DILUPBiCG:  Solving for Ux, Initial residual = 0.62883243, Final residual = 1.3212412e-09, No Iterations 3
DILUPBiCG:  Solving for Uy, Initial residual = 0.051561911, Final residual = 5.3836513e-10, No Iterations 3
GAMG:  Solving for p, Initial residual = 0.0001164991, Final residual = 2.4295466e-07, No Iterations 2
time step continuity errors : sum local = 3.0466858e-09, global = 5.404154e-10, cumulative = 2.6085286e-09
ExecutionTime = 0.03 s  ClockTime = 0 s

fieldMinMax minmaxdomain write:
    min(p) = 0 at location (9.9841283 -0.43458731 0.05)
    max(p) = 1.53103 at location (0 -0.43458731 0.05)
    min(U) = (0.02654186 -0.0014883214 0) at location (0.049920641 -0.43458731 0.05)
    max(U) = (0.04565633 4.4450384e-10 1.8816444e-33) at location (4.043572 -0.048287478 0.05)

surfaceRegion inMassFlow write:
    sum(inlet) of phi = -0.0041534774

surfaceRegion outMassFlow write:
    sum(outlet) of phi = 0.0041534879

surfaceRegion inPre write:
    weightedAverage(inlet) of phi = -0.00041534774
    weightedAverage(inlet) of U = (0.04300781 0 0)
    weightedAverage(inlet) of p = 1.53103

surfaceRegion outMax write:
    max(outlet) of U = (0.045688523 1.3767795e-06 0)
    max(outlet) of p = 0

Time = 0.35

Courant Number mean: 0.021558419 max: 0.024492221
DILUPBiCG:  Solving for Ux, Initial residual = 0.521309, Final residual = 1.5633135e-09, No Iterations 3
DILUPBiCG:  Solving for Uy, Initial residual = 0.056415451, Final residual = 6.2088943e-10, No Iterations 3
GAMG:  Solving for p, Initial residual = 6.773404e-05, Final residual = 4.0396656e-07, No Iterations 2
time step continuity errors : sum local = 5.0579713e-09, global = -1.848446e-09, cumulative = 7.6008264e-10
ExecutionTime = 0.03 s  ClockTime = 0 s

fieldMinMax minmaxdomain write:
    min(p) = 0 at location (9.9841283 -0.43458731 0.05)
    max(p) = 1.53103 at location (0 -0.43458731 0.05)
    min(U) = (0.031846771 -0.0012267721 0) at location (0.049920641 -0.43458731 0.05)
    max(U) = (0.053314643 -1.9518002e-11 1.8815892e-33) at location (4.043572 -0.048287478 0.05)

surfaceRegion inMassFlow write:
    sum(inlet) of phi = -0.0048141109

surfaceRegion outMassFlow write:
    sum(outlet) of phi = 0.0048140752

surfaceRegion inPre write:
    weightedAverage(inlet) of phi = -0.00048141109
    weightedAverage(inlet) of U = (0.049848439 0 0)
    weightedAverage(inlet) of p = 1.53103

surfaceRegion outMax write:
    max(outlet) of U = (0.053342625 1.4021201e-06 0)
    max(outlet) of p = 0

Time = 0.4

Courant Number mean: 0.024981753 max: 0.028072467
DILUPBiCG:  Solving for Ux, Initial residual = 0.43850097, Final residual = 2.1730648e-09, No Iterations 3
DILUPBiCG:  Solving for Uy, Initial residual = 0.058450798, Final residual = 6.8481215e-10, No Iterations 3
GAMG:  Solving for p, Initial residual = 4.4850311e-05, Final residual = 2.1194574e-07, No Iterations 2
time step continuity errors : sum local = 2.6498553e-09, global = -1.1636694e-09, cumulative = -4.0358671e-10
ExecutionTime = 0.03 s  ClockTime = 0 s

fieldMinMax minmaxdomain write:
    min(p) = 0 at location (9.9841283 -0.43458731 0.05)
    max(p) = 1.53103 at location (0 -0.43458731 0.05)
    min(U) = (0.036756531 -0.0010005983 0) at location (0.049920641 -0.43458731 0.05)
    max(U) = (0.06097219 -1.138585e-10 1.8815707e-33) at location (4.043572 -0.048287478 0.05)

surfaceRegion inMassFlow write:
    sum(inlet) of phi = -0.0054664015

surfaceRegion outMassFlow write:
    sum(outlet) of phi = 0.005466379

surfaceRegion inPre write:
    weightedAverage(inlet) of phi = -0.00054664015
    weightedAverage(inlet) of U = (0.056602681 0 0)
    weightedAverage(inlet) of p = 1.53103

surfaceRegion outMax write:
    max(outlet) of U = (0.060996486 1.3990739e-06 0)
    max(outlet) of p = 0

Time = 0.45

Courant Number mean: 0.028362297 max: 0.031652861
DILUPBiCG:  Solving for Ux, Initial residual = 0.3740377, Final residual = 4.8526123e-09, No Iterations 3
DILUPBiCG:  Solving for Uy, Initial residual = 0.060750527, Final residual = 7.574123e-10, No Iterations 3
GAMG:  Solving for p, Initial residual = 3.3946322e-05, Final residual = 8.4321464e-07, No Iterations 1
time step continuity errors : sum local = 1.0527359e-08, global = -3.1694002e-09, cumulative = -3.5729869e-09
ExecutionTime = 0.04 s  ClockTime = 0 s

fieldMinMax minmaxdomain write:
    min(p) = 0 at location (9.9841283 -0.43458731 0.05)
    max(p) = 1.53103 at location (0 -0.43458731 0.05)
    min(U) = (0.041319305 -0.00080652074 0) at location (0.049920641 -0.43458731 0.05)
    max(U) = (0.068628625 4.0439072e-11 1.8815188e-33) at location (4.043572 -0.048287478 0.05)

surfaceRegion inMassFlow write:
    sum(inlet) of phi = -0.0061109464

surfaceRegion outMassFlow write:
    sum(outlet) of phi = 0.0061108852

surfaceRegion inPre write:
    weightedAverage(inlet) of phi = -0.00061109464
    weightedAverage(inlet) of U = (0.063276719 0 0)
    weightedAverage(inlet) of p = 1.53103

surfaceRegion outMax write:
    max(outlet) of U = (0.068649684 1.3747669e-06 0)
    max(outlet) of p = 0

Time = 0.5

Courant Number mean: 0.031702599 max: 0.035332928
DILUPBiCG:  Solving for Ux, Initial residual = 0.32316306, Final residual = 8.1248468e-09, No Iterations 3
DILUPBiCG:  Solving for Uy, Initial residual = 0.063848415, Final residual = 8.4796501e-10, No Iterations 3
GAMG:  Solving for p, Initial residual = 2.8889649e-05, Final residual = 1.6383614e-07, No Iterations 2
time step continuity errors : sum local = 2.042611e-09, global = -1.2488399e-09, cumulative = -4.8218268e-09
ExecutionTime = 0.04 s  ClockTime = 0 s

fieldMinMax minmaxdomain write:
    min(p) = 0 at location (9.9841283 -0.43458731 0.05)
    max(p) = 1.53103 at location (0 -0.43458731 0.05)
    min(U) = (0.045577715 -0.000640586 0) at location (0.049920641 -0.43458731 0.05)
    max(U) = (0.076283788 5.1547639e-11 1.881516e-33) at location (4.043572 -0.048287478 0.05)

surfaceRegion inMassFlow write:
    sum(inlet) of phi = -0.0067480734

surfaceRegion outMassFlow write:
    sum(outlet) of phi = 0.0067480493

surfaceRegion inPre write:
    weightedAverage(inlet) of phi = -0.00067480734
    weightedAverage(inlet) of U = (0.069873947 0 0)
    weightedAverage(inlet) of p = 1.53103

surfaceRegion outMax write:
    max(outlet) of U = (0.076302027 1.3339493e-06 0)
    max(outlet) of p = 0

Time = 0.55

Courant Number mean: 0.035004935 max: 0.039055231
DILUPBiCG:  Solving for Ux, Initial residual = 0.28245926, Final residual = 2.3244519e-09, No Iterations 3
DILUPBiCG:  Solving for Uy, Initial residual = 0.066591535, Final residual = 9.470163e-10, No Iterations 3
GAMG:  Solving for p, Initial residual = 2.4156711e-05, Final residual = 4.1119376e-07, No Iterations 1
time step continuity errors : sum local = 5.1194888e-09, global = 3.4797102e-09, cumulative = -1.3421166e-09
ExecutionTime = 0.04 s  ClockTime = 0 s

fieldMinMax minmaxdomain write:
    min(p) = 0 at location (9.9841283 -0.43458731 0.05)
    max(p) = 1.53103 at location (0 -0.43458731 0.05)
    min(U) = (0.049568152 -0.00049890207 0) at location (0.049920641 -0.43458731 0.05)
    max(U) = (0.083937207 2.4537065e-11 1.8814686e-33) at location (4.043572 -0.048287478 0.05)

surfaceRegion inMassFlow write:
    sum(inlet) of phi = -0.0073781808

surfaceRegion outMassFlow write:
    sum(outlet) of phi = 0.0073782479

surfaceRegion inPre write:
    weightedAverage(inlet) of phi = -0.00073781808
    weightedAverage(inlet) of U = (0.076398489 0 0)
    weightedAverage(inlet) of p = 1.53103

surfaceRegion outMax write:
    max(outlet) of U = (0.083952973 1.2818901e-06 0)
    max(outlet) of p = 0

Time = 0.6

Courant Number mean: 0.038271276 max: 0.042776344
DILUPBiCG:  Solving for Ux, Initial residual = 0.24943978, Final residual = 1.4474985e-09, No Iterations 3
DILUPBiCG:  Solving for Uy, Initial residual = 0.071740716, Final residual = 1.0809929e-09, No Iterations 3
GAMG:  Solving for p, Initial residual = 2.1807248e-05, Final residual = 5.3904373e-07, No Iterations 1
time step continuity errors : sum local = 6.7021802e-09, global = 4.6569406e-09, cumulative = 3.314824e-09
ExecutionTime = 0.04 s  ClockTime = 0 s

fieldMinMax minmaxdomain write:
    min(p) = 0 at location (9.9841283 -0.43458731 0.05)
    max(p) = 1.53103 at location (0 -0.43458731 0.05)
    min(U) = (0.053323323 -0.00037729556 0) at location (0.049920641 -0.43458731 0.05)
    max(U) = (0.09158846 -4.1254529e-11 1.8814232e-33) at location (4.043572 -0.048287478 0.05)

surfaceRegion inMassFlow write:
    sum(inlet) of phi = -0.0080017387

surfaceRegion outMassFlow write:
    sum(outlet) of phi = 0.0080018285

surfaceRegion inPre write:
    weightedAverage(inlet) of phi = -0.00080017387
    weightedAverage(inlet) of U = (0.082855214 0 0)
    weightedAverage(inlet) of p = 1.53103

surfaceRegion outMax write:
    max(outlet) of U = (0.091602072 1.2215651e-06 0)
    max(outlet) of p = 0

Time = 0.65

Courant Number mean: 0.041503416 max: 0.046503862
DILUPBiCG:  Solving for Ux, Initial residual = 0.22230479, Final residual = 1.129152e-09, No Iterations 3
DILUPBiCG:  Solving for Uy, Initial residual = 0.077801519, Final residual = 1.2467187e-09, No Iterations 3
GAMG:  Solving for p, Initial residual = 1.9934024e-05, Final residual = 5.6389037e-07, No Iterations 1
time step continuity errors : sum local = 7.0017491e-09, global = 5.4302068e-09, cumulative = 8.7450308e-09
ExecutionTime = 0.04 s  ClockTime = 0 s

fieldMinMax minmaxdomain write:
    min(p) = 0 at location (9.9841283 -0.43458731 0.05)
    max(p) = 1.53103 at location (0 -0.43458731 0.05)
    min(U) = (0.05686937 -0.00027195053 0) at location (0.049920641 -0.43458731 0.05)
    max(U) = (0.099237111 -2.8562382e-11 1.8813798e-33) at location (4.043572 -0.048287478 0.05)

surfaceRegion inMassFlow write:
    sum(inlet) of phi = -0.0086189979

surfaceRegion outMassFlow write:
    sum(outlet) of phi = 0.0086191026

surfaceRegion inPre write:
    weightedAverage(inlet) of phi = -0.00086189979
    weightedAverage(inlet) of U = (0.089246718 0 0)
    weightedAverage(inlet) of p = 1.53103

surfaceRegion outMax write:
    max(outlet) of U = (0.099248847 1.155633e-06 0)
    max(outlet) of p = 0

Time = 0.7

Courant Number mean: 0.044702953 max: 0.05023605
DILUPBiCG:  Solving for Ux, Initial residual = 0.19973734, Final residual = 9.7717352e-10, No Iterations 3
DILUPBiCG:  Solving for Uy, Initial residual = 0.086025641, Final residual = 1.47211e-09, No Iterations 3
GAMG:  Solving for p, Initial residual = 1.8882273e-05, Final residual = 6.1329742e-07, No Iterations 1
time step continuity errors : sum local = 7.605221e-09, global = 6.6072694e-09, cumulative = 1.53523e-08
ExecutionTime = 0.04 s  ClockTime = 0 s

fieldMinMax minmaxdomain write:
    min(p) = 0 at location (9.9841283 -0.43458731 0.05)
    max(p) = 1.53103 at location (0 -0.43458731 0.05)
    min(U) = (0.060228831 -0.00017946917 0) at location (0.049920641 -0.43458731 0.05)
    max(U) = (0.10688267 1.3161368e-11 1.8813355e-33) at location (4.043572 -0.048287478 0.05)

surfaceRegion inMassFlow write:
    sum(inlet) of phi = -0.0092302217

surfaceRegion outMassFlow write:
    sum(outlet) of phi = 0.0092303491

surfaceRegion inPre write:
    weightedAverage(inlet) of phi = -0.00092302217
    weightedAverage(inlet) of U = (0.095575727 0 0)
    weightedAverage(inlet) of p = 1.53103

surfaceRegion outMax write:
    max(outlet) of U = (0.10689277 1.0862816e-06 0)
    max(outlet) of p = 0

Time = 0.75

Courant Number mean: 0.04787132 max: 0.054003625
DILUPBiCG:  Solving for Ux, Initial residual = 0.18076175, Final residual = 8.9696917e-10, No Iterations 3
DILUPBiCG:  Solving for Uy, Initial residual = 0.09779432, Final residual = 1.7903129e-09, No Iterations 3
GAMG:  Solving for p, Initial residual = 1.8930167e-05, Final residual = 7.5215834e-07, No Iterations 1
time step continuity errors : sum local = 9.3151053e-09, global = 7.8489397e-09, cumulative = 2.320124e-08
ExecutionTime = 0.04 s  ClockTime = 0 s

fieldMinMax minmaxdomain write:
    min(p) = 0 at location (9.9841283 -0.43458731 0.05)
    max(p) = 1.53103 at location (0 -0.43458731 0.05)
    min(U) = (0.063421056 -9.6540811e-05 0) at location (0.049920641 -0.43458731 0.05)
    max(U) = (0.1145246 3.7834117e-11 1.8812882e-33) at location (4.043572 -0.048287478 0.05)

surfaceRegion inMassFlow write:
    sum(inlet) of phi = -0.0098356671

surfaceRegion outMassFlow write:
    sum(outlet) of phi = 0.0098358185

surfaceRegion inPre write:
    weightedAverage(inlet) of phi = -0.00098356671
    weightedAverage(inlet) of U = (0.1018449 0 0)
    weightedAverage(inlet) of p = 1.53103

surfaceRegion outMax write:
    max(outlet) of U = (0.11453328 1.0151728e-06 0)
    max(outlet) of p = 0

Time = 0.8

Courant Number mean: 0.051009804 max: 0.057772037
DILUPBiCG:  Solving for Ux, Initial residual = 0.16464585, Final residual = 8.4008976e-10, No Iterations 3
DILUPBiCG:  Solving for Uy, Initial residual = 0.11529937, Final residual = 2.2776892e-09, No Iterations 3
GAMG:  Solving for p, Initial residual = 2.0770962e-05, Final residual = 9.3825798e-07, No Iterations 1
time step continuity errors : sum local = 1.1605006e-08, global = 8.9268849e-09, cumulative = 3.2128125e-08
ExecutionTime = 0.04 s  ClockTime = 0 s

fieldMinMax minmaxdomain write:
    min(p) = 0 at location (9.9841283 -0.43458731 0.05)
    max(p) = 1.53103 at location (0 -0.43458731 0.05)
    min(U) = (0.066461262 -1.8540221e-05 0) at location (0.049920641 -0.43458731 0.05)
    max(U) = (0.12216233 3.0103178e-11 1.8812378e-33) at location (4.043572 -0.048287478 0.05)

surfaceRegion inMassFlow write:
    sum(inlet) of phi = -0.010435565

surfaceRegion outMassFlow write:
    sum(outlet) of phi = 0.010435737

surfaceRegion inPre write:
    weightedAverage(inlet) of phi = -0.0010435565
    weightedAverage(inlet) of U = (0.10805663 0 0)
    weightedAverage(inlet) of p = 1.53103

surfaceRegion outMax write:
    max(outlet) of U = (0.12216976 9.4353816e-07 0)
    max(outlet) of p = 0

Time = 0.85

Courant Number mean: 0.054119596 max: 0.061538387
DILUPBiCG:  Solving for Ux, Initial residual = 0.1508331, Final residual = 7.961673e-10, No Iterations 3
DILUPBiCG:  Solving for Uy, Initial residual = 0.13978439, Final residual = 3.2870991e-09, No Iterations 3
GAMG:  Solving for p, Initial residual = 1.7398303e-05, Final residual = 9.5326682e-07, No Iterations 1
time step continuity errors : sum local = 1.1775751e-08, global = 8.700321e-09, cumulative = 4.0828446e-08
ExecutionTime = 0.04 s  ClockTime = 0 s

fieldMinMax minmaxdomain write:
    min(p) = 0 at location (9.9841283 -0.43458731 0.05)
    max(p) = 1.53103 at location (0 -0.43458731 0.05)
    min(U) = (0.069370809 4.65779e-05 0) at location (0.049920641 -0.43458731 0.05)
    max(U) = (0.069370809 4.65779e-05 0) at location (0.049920641 -0.43458731 0.05)

surfaceRegion inMassFlow write:
    sum(inlet) of phi = -0.011030141

surfaceRegion outMassFlow write:
    sum(outlet) of phi = 0.011030309

surfaceRegion inPre write:
    weightedAverage(inlet) of phi = -0.0011030141
    weightedAverage(inlet) of U = (0.11421327 0 0)
    weightedAverage(inlet) of p = 1.53103

surfaceRegion outMax write:
    max(outlet) of U = (0.1298016 8.7234176e-07 0)
    max(outlet) of p = 0

Time = 0.9

Courant Number mean: 0.057201866 max: 0.065302034
DILUPBiCG:  Solving for Ux, Initial residual = 0.13889525, Final residual = 7.598353e-10, No Iterations 3
DILUPBiCG:  Solving for Uy, Initial residual = 0.1659057, Final residual = 3.9101936e-09, No Iterations 3
GAMG:  Solving for p, Initial residual = 1.9700447e-05, Final residual = 1.2505343e-07, No Iterations 2
time step continuity errors : sum local = 1.5428653e-09, global = 1.9347445e-10, cumulative = 4.102192e-08
ExecutionTime = 0.05 s  ClockTime = 0 s

fieldMinMax minmaxdomain write:
    min(p) = 0 at location (9.9841283 -0.43458731 0.05)
    max(p) = 1.53103 at location (0 -0.43458731 0.05)
    min(U) = (0.072163726 0.0001002935 0) at location (0.049920641 -0.43458731 0.05)
    max(U) = (0.072163726 0.0001002935 0) at location (0.049920641 -0.43458731 0.05)

surfaceRegion inMassFlow write:
    sum(inlet) of phi = -0.011619708

surfaceRegion outMassFlow write:
    sum(outlet) of phi = 0.011619712

surfaceRegion inPre write:
    weightedAverage(inlet) of phi = -0.0011619708
    weightedAverage(inlet) of U = (0.12031803 0 0)
    weightedAverage(inlet) of p = 1.53103

surfaceRegion outMax write:
    max(outlet) of U = (0.13742803 8.0245614e-07 0)
    max(outlet) of p = 0

Time = 0.95

Courant Number mean: 0.060257656 max: 0.069064553
DILUPBiCG:  Solving for Ux, Initial residual = 0.12849898, Final residual = 7.3395912e-10, No Iterations 3
DILUPBiCG:  Solving for Uy, Initial residual = 0.1881158, Final residual = 4.6149092e-09, No Iterations 3
GAMG:  Solving for p, Initial residual = 1.9807403e-05, Final residual = 8.7487449e-07, No Iterations 1
time step continuity errors : sum local = 1.0780478e-08, global = 2.8850365e-09, cumulative = 4.3906957e-08
ExecutionTime = 0.05 s  ClockTime = 0 s

fieldMinMax minmaxdomain write:
    min(p) = 0 at location (9.9841283 -0.43458731 0.05)
    max(p) = 1.53103 at location (0 -0.43458731 0.05)
    min(U) = (0.074856526 0.0001438789 0) at location (0.049920641 -0.43458731 0.05)
    max(U) = (0.074856526 0.0001438789 0) at location (0.049920641 -0.43458731 0.05)

surfaceRegion inMassFlow write:
    sum(inlet) of phi = -0.012204081

surfaceRegion outMassFlow write:
    sum(outlet) of phi = 0.012204137

surfaceRegion inPre write:
    weightedAverage(inlet) of phi = -0.0012204081
    weightedAverage(inlet) of U = (0.126369 0 0)
    weightedAverage(inlet) of p = 1.53103

surfaceRegion outMax write:
    max(outlet) of U = (0.1450486 7.3410001e-07 0)
    max(outlet) of p = 0

Time = 1

Courant Number mean: 0.063287881 max: 0.072831751
DILUPBiCG:  Solving for Ux, Initial residual = 0.11938184, Final residual = 7.1234159e-10, No Iterations 3
DILUPBiCG:  Solving for Uy, Initial residual = 0.19335955, Final residual = 5.0513399e-09, No Iterations 3
GAMG:  Solving for p, Initial residual = 1.7217852e-05, Final residual = 1.2797455e-07, No Iterations 2
time step continuity errors : sum local = 1.5749877e-09, global = 7.4409764e-10, cumulative = 4.4651054e-08
ExecutionTime = 0.05 s  ClockTime = 0 s

fieldMinMax minmaxdomain write:
    min(p) = 0 at location (9.9841283 -0.43458731 0.05)
    max(p) = 1.53103 at location (0 -0.43458731 0.05)
    min(U) = (0.077460529 0.00017949939 0) at location (0.049920641 -0.43458731 0.05)
    max(U) = (0.077460529 0.00017949939 0) at location (0.049920641 -0.43458731 0.05)

surfaceRegion inMassFlow write:
    sum(inlet) of phi = -0.012783715

surfaceRegion outMassFlow write:
    sum(outlet) of phi = 0.012783729

surfaceRegion inPre write:
    weightedAverage(inlet) of phi = -0.0012783715
    weightedAverage(inlet) of U = (0.13237091 0 0)
    weightedAverage(inlet) of p = 1.53103

surfaceRegion outMax write:
    max(outlet) of U = (0.15266249 6.6819266e-07 0)
    max(outlet) of p = 0

Time = 1.05

Courant Number mean: 0.066293227 max: 0.076593939
DILUPBiCG:  Solving for Ux, Initial residual = 0.11133519, Final residual = 6.9316992e-10, No Iterations 3
DILUPBiCG:  Solving for Uy, Initial residual = 0.18025876, Final residual = 4.7257792e-09, No Iterations 3
GAMG:  Solving for p, Initial residual = 1.4168626e-05, Final residual = 7.2902517e-07, No Iterations 1
time step continuity errors : sum local = 8.9611705e-09, global = 7.2188578e-09, cumulative = 5.1869912e-08
ExecutionTime = 0.05 s  ClockTime = 0 s

fieldMinMax minmaxdomain write:
    min(p) = 0 at location (9.9841283 -0.43458731 0.05)
    max(p) = 1.53103 at location (0 -0.43458731 0.05)
    min(U) = (0.079973578 0.00021068787 0) at location (0.049920641 -0.43458731 0.05)
    max(U) = (0.079973578 0.00021068787 0) at location (0.049920641 -0.43458731 0.05)

surfaceRegion inMassFlow write:
    sum(inlet) of phi = -0.0133585

surfaceRegion outMassFlow write:
    sum(outlet) of phi = 0.013358639

surfaceRegion inPre write:
    weightedAverage(inlet) of phi = -0.00133585
    weightedAverage(inlet) of U = (0.1383226 0 0)
    weightedAverage(inlet) of p = 1.53103

surfaceRegion outMax write:
    max(outlet) of U = (0.16026908 6.0483453e-07 0)
    max(outlet) of p = 0

Time = 1.1

Courant Number mean: 0.069274573 max: 0.080361452
DILUPBiCG:  Solving for Ux, Initial residual = 0.10419146, Final residual = 6.8130143e-10, No Iterations 3
DILUPBiCG:  Solving for Uy, Initial residual = 0.16307665, Final residual = 4.3416641e-09, No Iterations 3
GAMG:  Solving for p, Initial residual = 1.4049718e-05, Final residual = 1.7566457e-07, No Iterations 2
time step continuity errors : sum local = 2.1566636e-09, global = 5.9342844e-10, cumulative = 5.2463341e-08
ExecutionTime = 0.05 s  ClockTime = 0 s

fieldMinMax minmaxdomain write:
    min(p) = 0 at location (9.9841283 -0.43458731 0.05)
    max(p) = 1.53103 at location (0 -0.43458731 0.05)
    min(U) = (0.082409078 0.00023787985 0) at location (0.049920641 -0.43458731 0.05)
    max(U) = (0.082409078 0.00023787985 0) at location (0.049920641 -0.43458731 0.05)

surfaceRegion inMassFlow write:
    sum(inlet) of phi = -0.013928967

surfaceRegion outMassFlow write:
    sum(outlet) of phi = 0.013928978

surfaceRegion inPre write:
    weightedAverage(inlet) of phi = -0.0013928967
    weightedAverage(inlet) of U = (0.1442296 0 0)
    weightedAverage(inlet) of p = 1.53103

surfaceRegion outMax write:
    max(outlet) of U = (0.16786743 5.4473901e-07 0)
    max(outlet) of p = 0

Time = 1.15

Courant Number mean: 0.072232395 max: 0.084135827
DILUPBiCG:  Solving for Ux, Initial residual = 0.09781422, Final residual = 6.7840204e-10, No Iterations 3
DILUPBiCG:  Solving for Uy, Initial residual = 0.1405755, Final residual = 3.9269868e-09, No Iterations 3
GAMG:  Solving for p, Initial residual = 1.3687688e-05, Final residual = 6.6445105e-07, No Iterations 1
time step continuity errors : sum local = 8.1478123e-09, global = 4.8798038e-09, cumulative = 5.7343144e-08
ExecutionTime = 0.05 s  ClockTime = 0 s

fieldMinMax minmaxdomain write:
    min(p) = 0 at location (9.9841283 -0.43458731 0.05)
    max(p) = 1.53103 at location (0 -0.43458731 0.05)
    min(U) = (0.084768915 0.00026169894 0) at location (0.049920641 -0.43458731 0.05)
    max(U) = (0.084768915 0.00026169894 0) at location (0.049920641 -0.43458731 0.05)

surfaceRegion inMassFlow write:
    sum(inlet) of phi = -0.014494798

surfaceRegion outMassFlow write:
    sum(outlet) of phi = 0.014494892

surfaceRegion inPre write:
    weightedAverage(inlet) of phi = -0.0014494798
    weightedAverage(inlet) of U = (0.15008858 0 0)
    weightedAverage(inlet) of p = 1.53103

surfaceRegion outMax write:
    max(outlet) of U = (0.17545705 4.877501e-07 0)
    max(outlet) of p = 0

Time = 1.2

Courant Number mean: 0.075167426 max: 0.087904829
DILUPBiCG:  Solving for Ux, Initial residual = 0.092091479, Final residual = 6.7630614e-10, No Iterations 3
DILUPBiCG:  Solving for Uy, Initial residual = 0.11834694, Final residual = 3.5303192e-09, No Iterations 3
GAMG:  Solving for p, Initial residual = 1.1648811e-05, Final residual = 9.5193733e-07, No Iterations 1
time step continuity errors : sum local = 1.1659293e-08, global = 8.5294686e-09, cumulative = 6.5872613e-08
ExecutionTime = 0.05 s  ClockTime = 0 s

fieldMinMax minmaxdomain write:
    min(p) = 0 at location (9.9841283 -0.43458731 0.05)
    max(p) = 1.53103 at location (0 -0.43458731 0.05)
    min(U) = (0.087061017 0.00028279879 0) at location (0.049920641 -0.43458731 0.05)
    max(U) = (0.087061017 0.00028279879 0) at location (0.049920641 -0.43458731 0.05)

surfaceRegion inMassFlow write:
    sum(inlet) of phi = -0.015056324

surfaceRegion outMassFlow write:
    sum(outlet) of phi = 0.015056489

surfaceRegion inPre write:
    weightedAverage(inlet) of phi = -0.0015056324
    weightedAverage(inlet) of U = (0.15590299 0 0)
    weightedAverage(inlet) of p = 1.53103

surfaceRegion outMax write:
    max(outlet) of U = (0.18303714 4.4200489e-07 0)
    max(outlet) of p = 0

Time = 1.25

Courant Number mean: 0.078080213 max: 0.091683994
DILUPBiCG:  Solving for Ux, Initial residual = 0.086932564, Final residual = 6.747481e-10, No Iterations 3
DILUPBiCG:  Solving for Uy, Initial residual = 0.099012018, Final residual = 3.1817854e-09, No Iterations 3
GAMG:  Solving for p, Initial residual = 1.2403393e-05, Final residual = 1.819465e-07, No Iterations 2
time step continuity errors : sum local = 2.2258613e-09, global = 6.6131542e-10, cumulative = 6.6533928e-08
ExecutionTime = 0.05 s  ClockTime = 0 s

fieldMinMax minmaxdomain write:
    min(p) = 0 at location (9.9841283 -0.43458731 0.05)
    max(p) = 1.53103 at location (0 -0.43458731 0.05)
    min(U) = (0.089292727 0.00030143995 0) at location (0.049920641 -0.43458731 0.05)
    max(U) = (0.089292727 0.00030143995 0) at location (0.049920641 -0.43458731 0.05)

surfaceRegion inMassFlow write:
    sum(inlet) of phi = -0.015613839

surfaceRegion outMassFlow write:
    sum(outlet) of phi = 0.015613852

surfaceRegion inPre write:
    weightedAverage(inlet) of phi = -0.0015613839
    weightedAverage(inlet) of U = (0.16167586 0 0)
    weightedAverage(inlet) of p = 1.53103

surfaceRegion outMax write:
    max(outlet) of U = (0.19060675 3.9787391e-07 0)
    max(outlet) of p = 0

Time = 1.3

Courant Number mean: 0.080971155 max: 0.09545819
DILUPBiCG:  Solving for Ux, Initial residual = 0.082016954, Final residual = 6.7191247e-10, No Iterations 3
DILUPBiCG:  Solving for Uy, Initial residual = 0.083865605, Final residual = 2.9282742e-09, No Iterations 3
GAMG:  Solving for p, Initial residual = 1.1026539e-05, Final residual = 5.4472772e-07, No Iterations 1
time step continuity errors : sum local = 6.6562408e-09, global = 4.5229414e-09, cumulative = 7.105687e-08
ExecutionTime = 0.05 s  ClockTime = 0 s

fieldMinMax minmaxdomain write:
    min(p) = 0 at location (9.9841283 -0.43458731 0.05)
    max(p) = 1.53103 at location (0 -0.43458731 0.05)
    min(U) = (0.091463793 0.00031797948 0) at location (0.049920641 -0.43458731 0.05)
    max(U) = (0.091463793 0.00031797948 0) at location (0.049920641 -0.43458731 0.05)

surfaceRegion inMassFlow write:
    sum(inlet) of phi = -0.01616702

surfaceRegion outMassFlow write:
    sum(outlet) of phi = 0.016167107

surfaceRegion inPre write:
    weightedAverage(inlet) of phi = -0.001616702
    weightedAverage(inlet) of U = (0.16740385 0 0)
    weightedAverage(inlet) of p = 1.53103

surfaceRegion outMax write:
    max(outlet) of U = (0.19816541 3.5522232e-07 0)
    max(outlet) of p = 0

Time = 1.35

Courant Number mean: 0.083840877 max: 0.099239552
DILUPBiCG:  Solving for Ux, Initial residual = 0.077553163, Final residual = 6.6913418e-10, No Iterations 3
DILUPBiCG:  Solving for Uy, Initial residual = 0.072569954, Final residual = 2.7400992e-09, No Iterations 3
GAMG:  Solving for p, Initial residual = 1.1392944e-05, Final residual = 9.0463005e-07, No Iterations 1
time step continuity errors : sum local = 1.1041326e-08, global = 8.4110054e-09, cumulative = 7.9467875e-08
ExecutionTime = 0.05 s  ClockTime = 0 s

fieldMinMax minmaxdomain write:
    min(p) = 0 at location (9.9841283 -0.43458731 0.05)
    max(p) = 1.53103 at location (0 -0.43458731 0.05)
    min(U) = (0.093581208 0.00033268622 0) at location (0.049920641 -0.43458731 0.05)
    max(U) = (0.093581208 0.00033268622 0) at location (0.049920641 -0.43458731 0.05)

surfaceRegion inMassFlow write:
    sum(inlet) of phi = -0.016716178

surfaceRegion outMassFlow write:
    sum(outlet) of phi = 0.01671634

surfaceRegion inPre write:
    weightedAverage(inlet) of phi = -0.0016716178
    weightedAverage(inlet) of U = (0.1730902 0 0)
    weightedAverage(inlet) of p = 1.53103

surfaceRegion outMax write:
    max(outlet) of U = (0.20571235 3.1417369e-07 0)
    max(outlet) of p = 0

Time = 1.4

Courant Number mean: 0.086689769 max: 0.10301914
DILUPBiCG:  Solving for Ux, Initial residual = 0.073489985, Final residual = 6.6639212e-10, No Iterations 3
DILUPBiCG:  Solving for Uy, Initial residual = 0.062837803, Final residual = 2.6356406e-09, No Iterations 3
GAMG:  Solving for p, Initial residual = 1.0938234e-05, Final residual = 1.9155379e-07, No Iterations 2
time step continuity errors : sum local = 2.3353221e-09, global = 7.9331269e-10, cumulative = 8.0261188e-08
ExecutionTime = 0.05 s  ClockTime = 0 s

fieldMinMax minmaxdomain write:
    min(p) = 0 at location (9.9841283 -0.43458731 0.05)
    max(p) = 1.53103 at location (0 -0.43458731 0.05)
    min(U) = (0.095651334 0.00034572231 0) at location (0.049920641 -0.43458731 0.05)
    max(U) = (0.095651334 0.00034572231 0) at location (0.049920641 -0.43458731 0.05)

surfaceRegion inMassFlow write:
    sum(inlet) of phi = -0.0172616

surfaceRegion outMassFlow write:
    sum(outlet) of phi = 0.017261616

surfaceRegion inPre write:
    weightedAverage(inlet) of phi = -0.00172616
    weightedAverage(inlet) of U = (0.17873785 0 0)
    weightedAverage(inlet) of p = 1.53103

surfaceRegion outMax write:
    max(outlet) of U = (0.21324659 2.7546287e-07 0)
    max(outlet) of p = 0

Time = 1.45

Courant Number mean: 0.089518231 max: 0.10679235
DILUPBiCG:  Solving for Ux, Initial residual = 0.06978003, Final residual = 6.6381926e-10, No Iterations 3
DILUPBiCG:  Solving for Uy, Initial residual = 0.054636025, Final residual = 2.6883274e-09, No Iterations 3
GAMG:  Solving for p, Initial residual = 1.0388333e-05, Final residual = 5.3634786e-07, No Iterations 1
time step continuity errors : sum local = 6.5314993e-09, global = 4.9257175e-09, cumulative = 8.5186905e-08
ExecutionTime = 0.06 s  ClockTime = 0 s

fieldMinMax minmaxdomain write:
    min(p) = 0 at location (9.9841283 -0.43458731 0.05)
    max(p) = 1.53103 at location (0 -0.43458731 0.05)
    min(U) = (0.097672391 0.00035730927 0) at location (0.049920641 -0.43458731 0.05)
    max(U) = (0.097672391 0.00035730927 0) at location (0.049920641 -0.43458731 0.05)

surfaceRegion inMassFlow write:
    sum(inlet) of phi = -0.017802945

surfaceRegion outMassFlow write:
    sum(outlet) of phi = 0.01780304

surfaceRegion inPre write:
    weightedAverage(inlet) of phi = -0.0017802945
    weightedAverage(inlet) of U = (0.18434329 0 0)
    weightedAverage(inlet) of p = 1.53103

surfaceRegion outMax write:
    max(outlet) of U = (0.22076767 2.3859118e-07 0)
    max(outlet) of p = 0

Time = 1.5

Courant Number mean: 0.092326662 max: 0.11055896
DILUPBiCG:  Solving for Ux, Initial residual = 0.066381954, Final residual = 6.6372409e-10, No Iterations 3
DILUPBiCG:  Solving for Uy, Initial residual = 0.048788795, Final residual = 6.4789557e-09, No Iterations 3
GAMG:  Solving for p, Initial residual = 1.0349677e-05, Final residual = 9.3146132e-07, No Iterations 1
time step continuity errors : sum local = 1.1330454e-08, global = 8.1853283e-09, cumulative = 9.3372234e-08
ExecutionTime = 0.06 s  ClockTime = 0 s

fieldMinMax minmaxdomain write:
    min(p) = 0 at location (9.9841283 -0.43458731 0.05)
    max(p) = 1.53103 at location (0 -0.43458731 0.05)
    min(U) = (0.099650316 0.00036763596 0) at location (0.049920641 -0.43458731 0.05)
    max(U) = (0.099650316 0.00036763596 0) at location (0.049920641 -0.43458731 0.05)

surfaceRegion inMassFlow write:
    sum(inlet) of phi = -0.018340526

surfaceRegion outMassFlow write:
    sum(outlet) of phi = 0.018340684

surfaceRegion inPre write:
    weightedAverage(inlet) of phi = -0.0018340526
    weightedAverage(inlet) of U = (0.18990976 0 0)
    weightedAverage(inlet) of p = 1.53103

surfaceRegion outMax write:
    max(outlet) of U = (0.22827483 2.0419166e-07 0)
    max(outlet) of p = 0

Time = 1.55

Courant Number mean: 0.095115449 max: 0.11431858
DILUPBiCG:  Solving for Ux, Initial residual = 0.063260195, Final residual = 6.7813361e-10, No Iterations 3
DILUPBiCG:  Solving for Uy, Initial residual = 0.04394477, Final residual = 3.5076616e-09, No Iterations 3
GAMG:  Solving for p, Initial residual = 1.0213423e-05, Final residual = 1.9155122e-07, No Iterations 2
time step continuity errors : sum local = 2.3274897e-09, global = 8.0755002e-10, cumulative = 9.4179784e-08
ExecutionTime = 0.06 s  ClockTime = 0 s

fieldMinMax minmaxdomain write:
    min(p) = 0 at location (9.9841283 -0.43458731 0.05)
    max(p) = 1.53103 at location (0 -0.43458731 0.05)
    min(U) = (0.10158981 0.00037680061 0) at location (0.049920641 -0.43458731 0.05)
    max(U) = (0.10158981 0.00037680061 0) at location (0.049920641 -0.43458731 0.05)

surfaceRegion inMassFlow write:
    sum(inlet) of phi = -0.018874581

surfaceRegion outMassFlow write:
    sum(outlet) of phi = 0.018874596

surfaceRegion inPre write:
    weightedAverage(inlet) of phi = -0.0018874581
    weightedAverage(inlet) of U = (0.1954397 0 0)
    weightedAverage(inlet) of p = 1.53103

surfaceRegion outMax write:
    max(outlet) of U = (0.23576713 1.7262168e-07 0)
    max(outlet) of p = 0

Time = 1.6

Courant Number mean: 0.097884961 max: 0.11807075
DILUPBiCG:  Solving for Ux, Initial residual = 0.060384198, Final residual = 6.9224098e-10, No Iterations 3
DILUPBiCG:  Solving for Uy, Initial residual = 0.039954994, Final residual = 3.5367841e-09, No Iterations 3
GAMG:  Solving for p, Initial residual = 9.9207249e-06, Final residual = 5.5777853e-07, No Iterations 1
time step continuity errors : sum local = 6.7699972e-09, global = 5.0389919e-09, cumulative = 9.9218776e-08
ExecutionTime = 0.06 s  ClockTime = 0 s

fieldMinMax minmaxdomain write:
    min(p) = 0 at location (9.9841283 -0.43458731 0.05)
    max(p) = 1.53103 at location (0 -0.43458731 0.05)
    min(U) = (0.10348866 0.00038494874 0) at location (0.049920641 -0.43458731 0.05)
    max(U) = (0.10348866 0.00038494874 0) at location (0.049920641 -0.43458731 0.05)

surfaceRegion inMassFlow write:
    sum(inlet) of phi = -0.019404776

surfaceRegion outMassFlow write:
    sum(outlet) of phi = 0.019404873

surfaceRegion inPre write:
    weightedAverage(inlet) of phi = -0.0019404776
    weightedAverage(inlet) of U = (0.20092969 0 0)
    weightedAverage(inlet) of p = 1.53103

surfaceRegion outMax write:
    max(outlet) of U = (0.24324414 1.4305565e-07 0)
    max(outlet) of p = 0

Time = 1.65

Courant Number mean: 0.10063555 max: 0.12181525
DILUPBiCG:  Solving for Ux, Initial residual = 0.057548176, Final residual = 7.0370788e-10, No Iterations 3
DILUPBiCG:  Solving for Uy, Initial residual = 0.036707969, Final residual = 3.4299469e-09, No Iterations 3
GAMG:  Solving for p, Initial residual = 9.9764151e-06, Final residual = 9.2361449e-07, No Iterations 1
time step continuity errors : sum local = 1.1198147e-08, global = 7.8751633e-09, cumulative = 1.0709394e-07
ExecutionTime = 0.06 s  ClockTime = 0 s

fieldMinMax minmaxdomain write:
    min(p) = 0 at location (9.9841283 -0.43458731 0.05)
    max(p) = 1.53103 at location (0 -0.43458731 0.05)
    min(U) = (0.10535198 0.00039221769 0) at location (0.049920641 -0.43458731 0.05)
    max(U) = (0.10535198 0.00039221769 0) at location (0.049920641 -0.43458731 0.05)

surfaceRegion inMassFlow write:
    sum(inlet) of phi = -0.019931419

surfaceRegion outMassFlow write:
    sum(outlet) of phi = 0.019931571

surfaceRegion inPre write:
    weightedAverage(inlet) of phi = -0.0019931419
    weightedAverage(inlet) of U = (0.2063829 0 0)
    weightedAverage(inlet) of p = 1.53103

surfaceRegion outMax write:
    max(outlet) of U = (0.25070514 1.1611613e-07 0)
    max(outlet) of p = 0

Time = 1.7

Courant Number mean: 0.10336756 max: 0.12555173
DILUPBiCG:  Solving for Ux, Initial residual = 0.054911708, Final residual = 7.1461471e-10, No Iterations 3
DILUPBiCG:  Solving for Uy, Initial residual = 0.033880521, Final residual = 3.7493025e-09, No Iterations 3
GAMG:  Solving for p, Initial residual = 9.8019732e-06, Final residual = 1.8720374e-07, No Iterations 2
time step continuity errors : sum local = 2.2672658e-09, global = 8.4195522e-10, cumulative = 1.0793589e-07
ExecutionTime = 0.06 s  ClockTime = 0 s

fieldMinMax minmaxdomain write:
    min(p) = 0 at location (9.9841283 -0.43458731 0.05)
    max(p) = 1.53103 at location (0 -0.43458731 0.05)
    min(U) = (0.10718348 0.00039865519 0) at location (0.049920641 -0.43458731 0.05)
    max(U) = (0.10718348 0.00039865519 0) at location (0.049920641 -0.43458731 0.05)

surfaceRegion inMassFlow write:
    sum(inlet) of phi = -0.020454713

surfaceRegion outMassFlow write:
    sum(outlet) of phi = 0.020454729

surfaceRegion inPre write:
    weightedAverage(inlet) of phi = -0.0020454713
    weightedAverage(inlet) of U = (0.21180142 0 0)
    weightedAverage(inlet) of p = 1.53103

surfaceRegion outMax write:
    max(outlet) of U = (0.25814922 9.2064385e-08 0)
    max(outlet) of p = 0

Time = 1.75

Courant Number mean: 0.10608128 max: 0.12927972
DILUPBiCG:  Solving for Ux, Initial residual = 0.052474775, Final residual = 7.2519108e-10, No Iterations 3
DILUPBiCG:  Solving for Uy, Initial residual = 0.031441805, Final residual = 2.349112e-09, No Iterations 3
GAMG:  Solving for p, Initial residual = 9.4516125e-06, Final residual = 5.7367649e-07, No Iterations 1
time step continuity errors : sum local = 6.9404999e-09, global = 5.2197799e-09, cumulative = 1.1315567e-07
ExecutionTime = 0.06 s  ClockTime = 0 s

fieldMinMax minmaxdomain write:
    min(p) = 0 at location (9.9841283 -0.43458731 0.05)
    max(p) = 1.53103 at location (0 -0.43458731 0.05)
    min(U) = (0.10898053 0.00040436798 0) at location (0.049920641 -0.43458731 0.05)
    max(U) = (0.10898053 0.00040436798 0) at location (0.049920641 -0.43458731 0.05)

surfaceRegion inMassFlow write:
    sum(inlet) of phi = -0.020974332

surfaceRegion outMassFlow write:
    sum(outlet) of phi = 0.020974433

surfaceRegion inPre write:
    weightedAverage(inlet) of phi = -0.0020974332
    weightedAverage(inlet) of U = (0.21718189 0 0)
    weightedAverage(inlet) of p = 1.53103

surfaceRegion outMax write:
    max(outlet) of U = (0.265576 6.9861218e-08 0)
    max(outlet) of p = 0

Time = 1.8

Courant Number mean: 0.10877702 max: 0.13299904
DILUPBiCG:  Solving for Ux, Initial residual = 0.050216587, Final residual = 7.35278e-10, No Iterations 3
DILUPBiCG:  Solving for Uy, Initial residual = 0.029405942, Final residual = 1.9691709e-09, No Iterations 3
GAMG:  Solving for p, Initial residual = 9.6009659e-06, Final residual = 9.183221e-07, No Iterations 1
time step continuity errors : sum local = 1.1098376e-08, global = 7.5100217e-09, cumulative = 1.206657e-07
ExecutionTime = 0.06 s  ClockTime = 0 s

fieldMinMax minmaxdomain write:
    min(p) = 0 at location (9.9841283 -0.43458731 0.05)
    max(p) = 1.53103 at location (0 -0.43458731 0.05)
    min(U) = (0.11074773 0.00040946053 0) at location (0.049920641 -0.43458731 0.05)
    max(U) = (0.11074773 0.00040946053 0) at location (0.049920641 -0.43458731 0.05)

surfaceRegion inMassFlow write:
    sum(inlet) of phi = -0.021490585

surfaceRegion outMassFlow write:
    sum(outlet) of phi = 0.02149073

surfaceRegion inPre write:
    weightedAverage(inlet) of phi = -0.0021490585
    weightedAverage(inlet) of U = (0.22252752 0 0)
    weightedAverage(inlet) of p = 1.53103

surfaceRegion outMax write:
    max(outlet) of U = (0.2729848 5.0155134e-08 0)
    max(outlet) of p = 0

Time = 1.85

Courant Number mean: 0.11145507 max: 0.13670936
DILUPBiCG:  Solving for Ux, Initial residual = 0.048120084, Final residual = 7.451226e-10, No Iterations 3
DILUPBiCG:  Solving for Uy, Initial residual = 0.027560135, Final residual = 1.9087248e-09, No Iterations 3
GAMG:  Solving for p, Initial residual = 9.3752987e-06, Final residual = 1.8013171e-07, No Iterations 2
time step continuity errors : sum local = 2.1746967e-09, global = 8.5491602e-10, cumulative = 1.2152061e-07
ExecutionTime = 0.06 s  ClockTime = 0 s

fieldMinMax minmaxdomain write:
    min(p) = 0 at location (9.9841283 -0.43458731 0.05)
    max(p) = 1.53103 at location (0 -0.43458731 0.05)
    min(U) = (0.112488 0.00041394583 0) at location (0.049920641 -0.43458731 0.05)
    max(U) = (0.112488 0.00041394583 0) at location (0.049920641 -0.43458731 0.05)

surfaceRegion inMassFlow write:
    sum(inlet) of phi = -0.022003634

surfaceRegion outMassFlow write:
    sum(outlet) of phi = 0.022003651

surfaceRegion inPre write:
    weightedAverage(inlet) of phi = -0.0022003634
    weightedAverage(inlet) of U = (0.22783996 0 0)
    weightedAverage(inlet) of p = 1.53103

surfaceRegion outMax write:
    max(outlet) of U = (0.28037476 3.3161129e-08 0)
    max(outlet) of p = 0

Time = 1.9

Courant Number mean: 0.11411569 max: 0.14041023
DILUPBiCG:  Solving for Ux, Initial residual = 0.046169483, Final residual = 7.5473702e-10, No Iterations 3
DILUPBiCG:  Solving for Uy, Initial residual = 0.025906026, Final residual = 1.8671119e-09, No Iterations 3
GAMG:  Solving for p, Initial residual = 8.9861404e-06, Final residual = 5.8582595e-07, No Iterations 1
time step continuity errors : sum local = 7.065196e-09, global = 5.343104e-09, cumulative = 1.2686372e-07
ExecutionTime = 0.07 s  ClockTime = 0 s

fieldMinMax minmaxdomain write:
    min(p) = 0 at location (9.9841283 -0.43458731 0.05)
    max(p) = 1.53103 at location (0 -0.43458731 0.05)
    min(U) = (0.11419854 0.00041790574 0) at location (0.049920641 -0.43458731 0.05)
    max(U) = (0.11419854 0.00041790574 0) at location (0.049920641 -0.43458731 0.05)

surfaceRegion inMassFlow write:
    sum(inlet) of phi = -0.022513172

surfaceRegion outMassFlow write:
    sum(outlet) of phi = 0.022513275

surfaceRegion inPre write:
    weightedAverage(inlet) of phi = -0.0022513172
    weightedAverage(inlet) of U = (0.23311604 0 0)
    weightedAverage(inlet) of p = 1.53103

surfaceRegion outMax write:
    max(outlet) of U = (0.28774557 1.9901173e-08 0)
    max(outlet) of p = 0

Time = 1.95

Courant Number mean: 0.11675915 max: 0.14410151
DILUPBiCG:  Solving for Ux, Initial residual = 0.044350825, Final residual = 7.6386448e-10, No Iterations 3
DILUPBiCG:  Solving for Uy, Initial residual = 0.024514447, Final residual = 1.8474265e-09, No Iterations 3
GAMG:  Solving for p, Initial residual = 9.2307954e-06, Final residual = 9.0843997e-07, No Iterations 1
time step continuity errors : sum local = 1.0944688e-08, global = 7.0801313e-09, cumulative = 1.3394385e-07
ExecutionTime = 0.07 s  ClockTime = 0 s

fieldMinMax minmaxdomain write:
    min(p) = 0 at location (9.9841283 -0.43458731 0.05)
    max(p) = 1.53103 at location (0 -0.43458731 0.05)
    min(U) = (0.11588358 0.00042142436 0) at location (0.049920641 -0.43458731 0.05)
    max(U) = (0.11588358 0.00042142436 0) at location (0.049920641 -0.43458731 0.05)

surfaceRegion inMassFlow write:
    sum(inlet) of phi = -0.023019504

surfaceRegion outMassFlow write:
    sum(outlet) of phi = 0.023019641

surfaceRegion inPre write:
    weightedAverage(inlet) of phi = -0.0023019504
    weightedAverage(inlet) of U = (0.23835894 0 0)
    weightedAverage(inlet) of p = 1.53103

surfaceRegion outMax write:
    max(outlet) of U = (0.29509658 9.0438787e-09 0)
    max(outlet) of p = 0

Time = 2

Courant Number mean: 0.11938568 max: 0.14778287
DILUPBiCG:  Solving for Ux, Initial residual = 0.042651927, Final residual = 7.7276799e-10, No Iterations 3
DILUPBiCG:  Solving for Uy, Initial residual = 0.023206325, Final residual = 1.8472957e-09, No Iterations 3
GAMG:  Solving for p, Initial residual = 8.9447765e-06, Final residual = 1.7080391e-07, No Iterations 2
time step continuity errors : sum local = 2.0557e-09, global = 8.5182789e-10, cumulative = 1.3479567e-07
ExecutionTime = 0.07 s  ClockTime = 0 s

fieldMinMax minmaxdomain write:
    min(p) = 0 at location (9.9841283 -0.43458731 0.05)
    max(p) = 1.53103 at location (0 -0.43458731 0.05)
    min(U) = (0.11754536 0.00042449067 0) at location (0.049920641 -0.43458731 0.05)
    max(U) = (0.11754536 0.00042449067 0) at location (0.049920641 -0.43458731 0.05)

surfaceRegion inMassFlow write:
    sum(inlet) of phi = -0.023522757

surfaceRegion outMassFlow write:
    sum(outlet) of phi = 0.023522773

surfaceRegion inPre write:
    weightedAverage(inlet) of phi = -0.0023522757
    weightedAverage(inlet) of U = (0.24356995 0 0)
    weightedAverage(inlet) of p = 1.53103

surfaceRegion outMax write:
    max(outlet) of U = (0.302427 9.3608482e-09 0)
    max(outlet) of p = 0

Time = 2.05

Courant Number mean: 0.12199552 max: 0.15145391
DILUPBiCG:  Solving for Ux, Initial residual = 0.041061981, Final residual = 7.8146802e-10, No Iterations 3
DILUPBiCG:  Solving for Uy, Initial residual = 0.022005501, Final residual = 1.8430753e-09, No Iterations 3
GAMG:  Solving for p, Initial residual = 8.5473637e-06, Final residual = 5.9332015e-07, No Iterations 1
time step continuity errors : sum local = 7.1335982e-09, global = 5.4315801e-09, cumulative = 1.4022725e-07
ExecutionTime = 0.07 s  ClockTime = 0 s

fieldMinMax minmaxdomain write:
    min(p) = 0 at location (9.9841283 -0.43458731 0.05)
    max(p) = 1.53103 at location (0 -0.43458731 0.05)
    min(U) = (0.11918108 0.00042717074 0) at location (0.049920641 -0.43458731 0.05)
    max(U) = (0.11918108 0.00042717074 0) at location (0.049920641 -0.43458731 0.05)

surfaceRegion inMassFlow write:
    sum(inlet) of phi = -0.024022641

surfaceRegion outMassFlow write:
    sum(outlet) of phi = 0.024022745

surfaceRegion inPre write:
    weightedAverage(inlet) of phi = -0.0024022641
    weightedAverage(inlet) of U = (0.24874607 0 0)
    weightedAverage(inlet) of p = 1.53103

surfaceRegion outMax write:
    max(outlet) of U = (0.30973657 1.6544702e-08 0)
    max(outlet) of p = 0

Time = 2.1

Courant Number mean: 0.12458891 max: 0.15511452
DILUPBiCG:  Solving for Ux, Initial residual = 0.039571321, Final residual = 7.9210747e-10, No Iterations 3
DILUPBiCG:  Solving for Uy, Initial residual = 0.0209913, Final residual = 1.8440565e-09, No Iterations 3
GAMG:  Solving for p, Initial residual = 8.9005133e-06, Final residual = 8.9538799e-07, No Iterations 1
time step continuity errors : sum local = 1.0754561e-08, global = 6.600814e-09, cumulative = 1.4682807e-07
ExecutionTime = 0.07 s  ClockTime = 0 s

fieldMinMax minmaxdomain write:
    min(p) = 0 at location (9.9841283 -0.43458731 0.05)
    max(p) = 1.53103 at location (0 -0.43458731 0.05)
    min(U) = (0.1207947 0.00042953572 0) at location (0.049920641 -0.43458731 0.05)
    max(U) = (0.1207947 0.00042953572 0) at location (0.049920641 -0.43458731 0.05)

surfaceRegion inMassFlow write:
    sum(inlet) of phi = -0.024519463

surfaceRegion outMassFlow write:
    sum(outlet) of phi = 0.02451959

surfaceRegion inPre write:
    weightedAverage(inlet) of phi = -0.0024519463
    weightedAverage(inlet) of U = (0.25389049 0 0)
    weightedAverage(inlet) of p = 1.53103

surfaceRegion outMax write:
    max(outlet) of U = (0.3170247 2.4209483e-08 0)
    max(outlet) of p = 0

Time = 2.15

Courant Number mean: 0.12716606 max: 0.15876438
DILUPBiCG:  Solving for Ux, Initial residual = 0.038171455, Final residual = 8.2531581e-10, No Iterations 3
DILUPBiCG:  Solving for Uy, Initial residual = 0.020030478, Final residual = 1.8476102e-09, No Iterations 3
GAMG:  Solving for p, Initial residual = 8.5773304e-06, Final residual = 9.5372358e-07, No Iterations 1
time step continuity errors : sum local = 1.1443766e-08, global = 5.3613966e-09, cumulative = 1.5218947e-07
ExecutionTime = 0.07 s  ClockTime = 0 s

fieldMinMax minmaxdomain write:
    min(p) = 0 at location (9.9841283 -0.43458731 0.05)
    max(p) = 1.53103 at location (0 -0.43458731 0.05)
    min(U) = (0.12238695 0.00043157705 0) at location (0.049920641 -0.43458731 0.05)
    max(U) = (0.12238695 0.00043157705 0) at location (0.049920641 -0.43458731 0.05)

surfaceRegion inMassFlow write:
    sum(inlet) of phi = -0.025013235

surfaceRegion outMassFlow write:
    sum(outlet) of phi = 0.025013338

surfaceRegion inPre write:
    weightedAverage(inlet) of phi = -0.0025013235
    weightedAverage(inlet) of U = (0.25900333 0 0)
    weightedAverage(inlet) of p = 1.53103

surfaceRegion outMax write:
    max(outlet) of U = (0.32429077 3.0504407e-08 0)
    max(outlet) of p = 0

Time = 2.2

Courant Number mean: 0.12972717 max: 0.16240319
DILUPBiCG:  Solving for Ux, Initial residual = 0.036854754, Final residual = 8.6872676e-10, No Iterations 3
DILUPBiCG:  Solving for Uy, Initial residual = 0.019226034, Final residual = 1.8517824e-09, No Iterations 3
GAMG:  Solving for p, Initial residual = 8.1958711e-06, Final residual = 8.5483659e-07, No Iterations 1
time step continuity errors : sum local = 1.0247021e-08, global = 5.9257184e-09, cumulative = 1.5811518e-07
ExecutionTime = 0.07 s  ClockTime = 0 s

fieldMinMax minmaxdomain write:
    min(p) = 0 at location (9.9841283 -0.43458731 0.05)
    max(p) = 1.53103 at location (0 -0.43458731 0.05)
    min(U) = (0.12395789 0.00043331644 0) at location (0.049920641 -0.43458731 0.05)
    max(U) = (0.12395789 0.00043331644 0) at location (0.049920641 -0.43458731 0.05)

surfaceRegion inMassFlow write:
    sum(inlet) of phi = -0.025503918

surfaceRegion outMassFlow write:
    sum(outlet) of phi = 0.025504032

surfaceRegion inPre write:
    weightedAverage(inlet) of phi = -0.0025503918
    weightedAverage(inlet) of U = (0.26408418 0 0)
    weightedAverage(inlet) of p = 1.53103

surfaceRegion outMax write:
    max(outlet) of U = (0.33153434 3.5490533e-08 0)
    max(outlet) of p = 0

Time = 2.25

Courant Number mean: 0.13227244 max: 0.16603073
DILUPBiCG:  Solving for Ux, Initial residual = 0.035614382, Final residual = 9.1671337e-10, No Iterations 3
DILUPBiCG:  Solving for Uy, Initial residual = 0.018499889, Final residual = 1.8550283e-09, No Iterations 3
GAMG:  Solving for p, Initial residual = 8.214829e-06, Final residual = 8.5351802e-07, No Iterations 1
time step continuity errors : sum local = 1.0221125e-08, global = 5.9902398e-09, cumulative = 1.6410542e-07
ExecutionTime = 0.07 s  ClockTime = 0 s

fieldMinMax minmaxdomain write:
    min(p) = 0 at location (9.9841283 -0.43458731 0.05)
    max(p) = 1.53103 at location (0 -0.43458731 0.05)
    min(U) = (0.12550866 0.00043480068 0) at location (0.049920641 -0.43458731 0.05)
    max(U) = (0.12550866 0.00043480068 0) at location (0.049920641 -0.43458731 0.05)

surfaceRegion inMassFlow write:
    sum(inlet) of phi = -0.025991595

surfaceRegion outMassFlow write:
    sum(outlet) of phi = 0.02599171

surfaceRegion inPre write:
    weightedAverage(inlet) of phi = -0.0025991595
    weightedAverage(inlet) of U = (0.2691339 0 0)
    weightedAverage(inlet) of p = 1.53103

surfaceRegion outMax write:
    max(outlet) of U = (0.33875494 3.9275631e-08 0)
    max(outlet) of p = 0

Time = 2.3

Courant Number mean: 0.13480207 max: 0.16964678
DILUPBiCG:  Solving for Ux, Initial residual = 0.034444227, Final residual = 9.703945e-10, No Iterations 3
DILUPBiCG:  Solving for Uy, Initial residual = 0.017822961, Final residual = 1.8658266e-09, No Iterations 3
GAMG:  Solving for p, Initial residual = 8.08373e-06, Final residual = 8.4287779e-07, No Iterations 1
time step continuity errors : sum local = 1.0083833e-08, global = 5.7455929e-09, cumulative = 1.6985102e-07
ExecutionTime = 0.07 s  ClockTime = 0 s

fieldMinMax minmaxdomain write:
    min(p) = 0 at location (9.9841283 -0.43458731 0.05)
    max(p) = 1.53103 at location (0 -0.43458731 0.05)
    min(U) = (0.12704004 0.00043605346 0) at location (0.049920641 -0.43458731 0.05)
    max(U) = (0.12704004 0.00043605346 0) at location (0.049920641 -0.43458731 0.05)

surfaceRegion inMassFlow write:
    sum(inlet) of phi = -0.026476298

surfaceRegion outMassFlow write:
    sum(outlet) of phi = 0.026476409

surfaceRegion inPre write:
    weightedAverage(inlet) of phi = -0.0026476298
    weightedAverage(inlet) of U = (0.27415284 0 0)
    weightedAverage(inlet) of p = 1.53103

surfaceRegion outMax write:
    max(outlet) of U = (0.34595214 4.1943465e-08 0)
    max(outlet) of p = 0

Time = 2.35

Courant Number mean: 0.13731625 max: 0.1732511
DILUPBiCG:  Solving for Ux, Initial residual = 0.033338786, Final residual = 1.0304491e-09, No Iterations 3
DILUPBiCG:  Solving for Uy, Initial residual = 0.017189696, Final residual = 1.8769261e-09, No Iterations 3
GAMG:  Solving for p, Initial residual = 7.9625382e-06, Final residual = 8.3050873e-07, No Iterations 1
time step continuity errors : sum local = 9.926213e-09, global = 5.585348e-09, cumulative = 1.7543636e-07
ExecutionTime = 0.07 s  ClockTime = 0 s

fieldMinMax minmaxdomain write:
    min(p) = 0 at location (9.9841283 -0.43458731 0.05)
    max(p) = 1.53103 at location (0 -0.43458731 0.05)
    min(U) = (0.12855266 0.00043709375 0) at location (0.049920641 -0.43458731 0.05)
    max(U) = (0.12855266 0.00043709375 0) at location (0.049920641 -0.43458731 0.05)

surfaceRegion inMassFlow write:
    sum(inlet) of phi = -0.026958056

surfaceRegion outMassFlow write:
    sum(outlet) of phi = 0.026958163

surfaceRegion inPre write:
    weightedAverage(inlet) of phi = -0.0026958056
    weightedAverage(inlet) of U = (0.27914127 0 0)
    weightedAverage(inlet) of p = 1.53103

surfaceRegion outMax write:
    max(outlet) of U = (0.35312551 4.3609556e-08 0)
    max(outlet) of p = 0

Time = 2.4

Courant Number mean: 0.13981515 max: 0.17684348
DILUPBiCG:  Solving for Ux, Initial residual = 0.032293093, Final residual = 1.1027482e-09, No Iterations 3
DILUPBiCG:  Solving for Uy, Initial residual = 0.016588818, Final residual = 1.8860033e-09, No Iterations 3
GAMG:  Solving for p, Initial residual = 7.8624086e-06, Final residual = 8.2129248e-07, No Iterations 1
time step continuity errors : sum local = 9.8066061e-09, global = 5.43191e-09, cumulative = 1.8086827e-07
ExecutionTime = 0.07 s  ClockTime = 0 s

fieldMinMax minmaxdomain write:
    min(p) = 0 at location (9.9841283 -0.43458731 0.05)
    max(p) = 1.53103 at location (0 -0.43458731 0.05)
    min(U) = (0.13004716 0.00043794149 0) at location (0.049920641 -0.43458731 0.05)
    max(U) = (0.13004716 0.00043794149 0) at location (0.049920641 -0.43458731 0.05)

surfaceRegion inMassFlow write:
    sum(inlet) of phi = -0.027436901

surfaceRegion outMassFlow write:
    sum(outlet) of phi = 0.027437006

surfaceRegion inPre write:
    weightedAverage(inlet) of phi = -0.0027436901
    weightedAverage(inlet) of U = (0.28409955 0 0)
    weightedAverage(inlet) of p = 1.53103

surfaceRegion outMax write:
    max(outlet) of U = (0.36027463 4.4385994e-08 0)
    max(outlet) of p = 0

Time = 2.45

Courant Number mean: 0.14229895 max: 0.18042372
DILUPBiCG:  Solving for Ux, Initial residual = 0.031302666, Final residual = 1.2061615e-09, No Iterations 3
DILUPBiCG:  Solving for Uy, Initial residual = 0.01601809, Final residual = 1.8934615e-09, No Iterations 3
GAMG:  Solving for p, Initial residual = 7.7509079e-06, Final residual = 8.1024122e-07, No Iterations 1
time step continuity errors : sum local = 9.6654e-09, global = 5.2724878e-09, cumulative = 1.8614076e-07
ExecutionTime = 0.08 s  ClockTime = 0 s

fieldMinMax minmaxdomain write:
    min(p) = 0 at location (9.9841283 -0.43458731 0.05)
    max(p) = 1.53103 at location (0 -0.43458731 0.05)
    min(U) = (0.13152416 0.00043861421 0) at location (0.049920641 -0.43458731 0.05)
    max(U) = (0.13152416 0.00043861421 0) at location (0.049920641 -0.43458731 0.05)

surfaceRegion inMassFlow write:
    sum(inlet) of phi = -0.027912868

surfaceRegion outMassFlow write:
    sum(outlet) of phi = 0.02791297

surfaceRegion inPre write:
    weightedAverage(inlet) of phi = -0.0027912868
    weightedAverage(inlet) of U = (0.28902802 0 0)
    weightedAverage(inlet) of p = 1.53103

surfaceRegion outMax write:
    max(outlet) of U = (0.36739912 4.4388103e-08 0)
    max(outlet) of p = 0

Time = 2.5

Courant Number mean: 0.14476782 max: 0.18399163
DILUPBiCG:  Solving for Ux, Initial residual = 0.030363444, Final residual = 1.3500119e-09, No Iterations 3
DILUPBiCG:  Solving for Uy, Initial residual = 0.015476632, Final residual = 1.8993257e-09, No Iterations 3
GAMG:  Solving for p, Initial residual = 7.6462213e-06, Final residual = 7.9877612e-07, No Iterations 1
time step continuity errors : sum local = 9.5195903e-09, global = 5.1216143e-09, cumulative = 1.9126238e-07
ExecutionTime = 0.08 s  ClockTime = 0 s

fieldMinMax minmaxdomain write:
    min(p) = 0 at location (9.9841283 -0.43458731 0.05)
    max(p) = 1.53103 at location (0 -0.43458731 0.05)
    min(U) = (0.13298424 0.00043912775 0) at location (0.049920641 -0.43458731 0.05)
    max(U) = (0.13298424 0.00043912775 0) at location (0.049920641 -0.43458731 0.05)

surfaceRegion inMassFlow write:
    sum(inlet) of phi = -0.028385987

surfaceRegion outMassFlow write:
    sum(outlet) of phi = 0.028386085

surfaceRegion inPre write:
    weightedAverage(inlet) of phi = -0.0028385987
    weightedAverage(inlet) of U = (0.29392699 0 0)
    weightedAverage(inlet) of p = 1.53103

surfaceRegion outMax write:
    max(outlet) of U = (0.3744986 4.3727416e-08 0)
    max(outlet) of p = 0

Time = 2.55

Courant Number mean: 0.14722191 max: 0.18754701
DILUPBiCG:  Solving for Ux, Initial residual = 0.029471743, Final residual = 1.5158134e-09, No Iterations 3
DILUPBiCG:  Solving for Uy, Initial residual = 0.014962036, Final residual = 1.9045075e-09, No Iterations 3
GAMG:  Solving for p, Initial residual = 7.5305707e-06, Final residual = 7.8797795e-07, No Iterations 1
time step continuity errors : sum local = 9.3820549e-09, global = 4.9702378e-09, cumulative = 1.9623261e-07
ExecutionTime = 0.08 s  ClockTime = 0 s

fieldMinMax minmaxdomain write:
    min(p) = 0 at location (9.9841283 -0.43458731 0.05)
    max(p) = 1.53103 at location (0 -0.43458731 0.05)
    min(U) = (0.13442791 0.00043949657 0) at location (0.049920641 -0.43458731 0.05)
    max(U) = (0.13442791 0.00043949657 0) at location (0.049920641 -0.43458731 0.05)

surfaceRegion inMassFlow write:
    sum(inlet) of phi = -0.028856288

surfaceRegion outMassFlow write:
    sum(outlet) of phi = 0.028856384

surfaceRegion inPre write:
    weightedAverage(inlet) of phi = -0.0028856288
    weightedAverage(inlet) of U = (0.2987968 0 0)
    weightedAverage(inlet) of p = 1.53103

surfaceRegion outMax write:
    max(outlet) of U = (0.38157272 4.2504407e-08 0)
    max(outlet) of p = 0

Time = 2.6

Courant Number mean: 0.14966138 max: 0.19108969
DILUPBiCG:  Solving for Ux, Initial residual = 0.028624213, Final residual = 1.7087648e-09, No Iterations 3
DILUPBiCG:  Solving for Uy, Initial residual = 0.014471192, Final residual = 1.9146937e-09, No Iterations 3
GAMG:  Solving for p, Initial residual = 7.4208599e-06, Final residual = 7.7746697e-07, No Iterations 1
time step continuity errors : sum local = 9.2482508e-09, global = 4.8189515e-09, cumulative = 2.0105157e-07
ExecutionTime = 0.08 s  ClockTime = 0 s

fieldMinMax minmaxdomain write:
    min(p) = 0 at location (9.9841283 -0.43458731 0.05)
    max(p) = 1.53103 at location (0 -0.43458731 0.05)
    min(U) = (0.1358557 0.00043973373 0) at location (0.049920641 -0.43458731 0.05)
    max(U) = (0.1358557 0.00043973373 0) at location (0.049920641 -0.43458731 0.05)

surfaceRegion inMassFlow write:
    sum(inlet) of phi = -0.0293238

surfaceRegion outMassFlow write:
    sum(outlet) of phi = 0.029323893

surfaceRegion inPre write:
    weightedAverage(inlet) of phi = -0.00293238
    weightedAverage(inlet) of U = (0.30363773 0 0)
    weightedAverage(inlet) of p = 1.53103

surfaceRegion outMax write:
    max(outlet) of U = (0.38862113 4.0810713e-08 0)
    max(outlet) of p = 0

Time = 2.65

Courant Number mean: 0.15208639 max: 0.19461949
DILUPBiCG:  Solving for Ux, Initial residual = 0.027817801, Final residual = 1.9360511e-09, No Iterations 3
DILUPBiCG:  Solving for Uy, Initial residual = 0.014007785, Final residual = 1.9242179e-09, No Iterations 3
GAMG:  Solving for p, Initial residual = 7.3122547e-06, Final residual = 7.6707604e-07, No Iterations 1
time step continuity errors : sum local = 9.1161777e-09, global = 4.6704247e-09, cumulative = 2.0572199e-07
ExecutionTime = 0.08 s  ClockTime = 0 s

fieldMinMax minmaxdomain write:
    min(p) = 0 at location (9.9841283 -0.43458731 0.05)
    max(p) = 1.53103 at location (0 -0.43458731 0.05)
    min(U) = (0.13726807 0.00043985098 0) at location (0.049920641 -0.43458731 0.05)
    max(U) = (0.13726807 0.00043985098 0) at location (0.049920641 -0.43458731 0.05)

surfaceRegion inMassFlow write:
    sum(inlet) of phi = -0.029788553

surfaceRegion outMassFlow write:
    sum(outlet) of phi = 0.029788643

surfaceRegion inPre write:
    weightedAverage(inlet) of phi = -0.0029788553
    weightedAverage(inlet) of U = (0.30845008 0 0)
    weightedAverage(inlet) of p = 1.53103

surfaceRegion outMax write:
    max(outlet) of U = (0.39564353 3.8731093e-08 0)
    max(outlet) of p = 0

Time = 2.7

Courant Number mean: 0.15449708 max: 0.19813627
DILUPBiCG:  Solving for Ux, Initial residual = 0.027049722, Final residual = 2.2074432e-09, No Iterations 3
DILUPBiCG:  Solving for Uy, Initial residual = 0.013566235, Final residual = 1.9319857e-09, No Iterations 3
GAMG:  Solving for p, Initial residual = 7.2057415e-06, Final residual = 7.5664013e-07, No Iterations 1
time step continuity errors : sum local = 8.983869e-09, global = 4.5240004e-09, cumulative = 2.1024599e-07
ExecutionTime = 0.08 s  ClockTime = 0 s

fieldMinMax minmaxdomain write:
    min(p) = 0 at location (9.9841283 -0.43458731 0.05)
    max(p) = 1.53103 at location (0 -0.43458731 0.05)
    min(U) = (0.13866546 0.00043985895 0) at location (0.049920641 -0.43458731 0.05)
    max(U) = (0.13866546 0.00043985895 0) at location (0.049920641 -0.43458731 0.05)

surfaceRegion inMassFlow write:
    sum(inlet) of phi = -0.030250574

surfaceRegion outMassFlow write:
    sum(outlet) of phi = 0.030250661

surfaceRegion inPre write:
    weightedAverage(inlet) of phi = -0.0030250574
    weightedAverage(inlet) of U = (0.31323414 0 0)
    weightedAverage(inlet) of p = 1.53103

surfaceRegion outMax write:
    max(outlet) of U = (0.40263962 3.6343811e-08 0)
    max(outlet) of p = 0

Time = 2.75

Courant Number mean: 0.1568936 max: 0.20163987
DILUPBiCG:  Solving for Ux, Initial residual = 0.026317427, Final residual = 2.5369966e-09, No Iterations 3
DILUPBiCG:  Solving for Uy, Initial residual = 0.01314016, Final residual = 1.9393184e-09, No Iterations 3
GAMG:  Solving for p, Initial residual = 7.0982628e-06, Final residual = 7.4620077e-07, No Iterations 1
time step continuity errors : sum local = 8.8518145e-09, global = 4.3789011e-09, cumulative = 2.1462489e-07
ExecutionTime = 0.08 s  ClockTime = 0 s

fieldMinMax minmaxdomain write:
    min(p) = 0 at location (9.9841283 -0.43458731 0.05)
    max(p) = 1.53103 at location (0 -0.43458731 0.05)
    min(U) = (0.1400483 0.00043976724 0) at location (0.049920641 -0.43458731 0.05)
    max(U) = (0.1400483 0.00043976724 0) at location (0.049920641 -0.43458731 0.05)

surfaceRegion inMassFlow write:
    sum(inlet) of phi = -0.030709889

surfaceRegion outMassFlow write:
    sum(outlet) of phi = 0.030709973

surfaceRegion inPre write:
    weightedAverage(inlet) of phi = -0.0030709889
    weightedAverage(inlet) of U = (0.31799019 0 0)
    weightedAverage(inlet) of p = 1.53103

surfaceRegion outMax write:
    max(outlet) of U = (0.40960909 3.3719368e-08 0)
    max(outlet) of p = 0

Time = 2.8

Courant Number mean: 0.15927609 max: 0.20513015
DILUPBiCG:  Solving for Ux, Initial residual = 0.025618583, Final residual = 2.9431862e-09, No Iterations 3
DILUPBiCG:  Solving for Uy, Initial residual = 0.012734836, Final residual = 1.9450115e-09, No Iterations 3
GAMG:  Solving for p, Initial residual = 6.9947359e-06, Final residual = 7.356785e-07, No Iterations 1
time step continuity errors : sum local = 8.719072e-09, global = 4.236204e-09, cumulative = 2.188611e-07
ExecutionTime = 0.08 s  ClockTime = 0 s

fieldMinMax minmaxdomain write:
    min(p) = 0 at location (9.9841283 -0.43458731 0.05)
    max(p) = 1.53103 at location (0 -0.43458731 0.05)
    min(U) = (0.14141698 0.00043958449 0) at location (0.049920641 -0.43458731 0.05)
    max(U) = (0.14141698 0.00043958449 0) at location (0.049920641 -0.43458731 0.05)

surfaceRegion inMassFlow write:
    sum(inlet) of phi = -0.031166525

surfaceRegion outMassFlow write:
    sum(outlet) of phi = 0.031166606

surfaceRegion inPre write:
    weightedAverage(inlet) of phi = -0.0031166525
    weightedAverage(inlet) of U = (0.32271849 0 0)
    weightedAverage(inlet) of p = 1.53103

surfaceRegion outMax write:
    max(outlet) of U = (0.4165517 3.0923013e-08 0)
    max(outlet) of p = 0

Time = 2.85

Courant Number mean: 0.16164467 max: 0.208607
DILUPBiCG:  Solving for Ux, Initial residual = 0.02495105, Final residual = 3.4533816e-09, No Iterations 3
DILUPBiCG:  Solving for Uy, Initial residual = 0.012347561, Final residual = 1.9508437e-09, No Iterations 3
GAMG:  Solving for p, Initial residual = 6.8956063e-06, Final residual = 7.2503992e-07, No Iterations 1
time step continuity errors : sum local = 8.5852445e-09, global = 4.0955425e-09, cumulative = 2.2295664e-07
ExecutionTime = 0.08 s  ClockTime = 0 s

fieldMinMax minmaxdomain write:
    min(p) = 0 at location (9.9841283 -0.43458731 0.05)
    max(p) = 1.53103 at location (0 -0.43458731 0.05)
    min(U) = (0.14277189 0.00043931851 0) at location (0.049920641 -0.43458731 0.05)
    max(U) = (0.14277189 0.00043931851 0) at location (0.049920641 -0.43458731 0.05)

surfaceRegion inMassFlow write:
    sum(inlet) of phi = -0.031620506

surfaceRegion outMassFlow write:
    sum(outlet) of phi = 0.031620585

surfaceRegion inPre write:
    weightedAverage(inlet) of phi = -0.0031620506
    weightedAverage(inlet) of U = (0.32741932 0 0)
    weightedAverage(inlet) of p = 1.53103

surfaceRegion outMax write:
    max(outlet) of U = (0.42346718 2.8011824e-08 0)
    max(outlet) of p = 0

Time = 2.9

Courant Number mean: 0.16399949 max: 0.21207036
DILUPBiCG:  Solving for Ux, Initial residual = 0.02431286, Final residual = 4.108152e-09, No Iterations 3
DILUPBiCG:  Solving for Uy, Initial residual = 0.011971947, Final residual = 1.9551481e-09, No Iterations 3
GAMG:  Solving for p, Initial residual = 6.795472e-06, Final residual = 7.1432563e-07, No Iterations 1
time step continuity errors : sum local = 8.4508097e-09, global = 3.9571126e-09, cumulative = 2.2691375e-07
ExecutionTime = 0.09 s  ClockTime = 0 s

fieldMinMax minmaxdomain write:
    min(p) = 0 at location (9.9841283 -0.43458731 0.05)
    max(p) = 1.53103 at location (0 -0.43458731 0.05)
    min(U) = (0.14411338 0.0004389763 0) at location (0.049920641 -0.43458731 0.05)
    max(U) = (0.14411338 0.0004389763 0) at location (0.049920641 -0.43458731 0.05)

surfaceRegion inMassFlow write:
    sum(inlet) of phi = -0.032071859

surfaceRegion outMassFlow write:
    sum(outlet) of phi = 0.032071935

surfaceRegion inPre write:
    weightedAverage(inlet) of phi = -0.0032071859
    weightedAverage(inlet) of U = (0.33209291 0 0)
    weightedAverage(inlet) of p = 1.53103

surfaceRegion outMax write:
    max(outlet) of U = (0.43035529 2.5036394e-08 0)
    max(outlet) of p = 0

Time = 2.95

Courant Number mean: 0.16634067 max: 0.21552008
DILUPBiCG:  Solving for Ux, Initial residual = 0.023702203, Final residual = 4.9725296e-09, No Iterations 3
DILUPBiCG:  Solving for Uy, Initial residual = 0.011614003, Final residual = 1.9588054e-09, No Iterations 3
GAMG:  Solving for p, Initial residual = 6.6958091e-06, Final residual = 7.0345594e-07, No Iterations 1
time step continuity errors : sum local = 8.3148272e-09, global = 3.822225e-09, cumulative = 2.3073598e-07
ExecutionTime = 0.09 s  ClockTime = 0 s

fieldMinMax minmaxdomain write:
    min(p) = 0 at location (9.9841283 -0.43458731 0.05)
    max(p) = 1.53103 at location (0 -0.43458731 0.05)
    min(U) = (0.14544178 0.00043856417 0) at location (0.049920641 -0.43458731 0.05)
    max(U) = (0.14544178 0.00043856417 0) at location (0.049920641 -0.43458731 0.05)

surfaceRegion inMassFlow write:
    sum(inlet) of phi = -0.032520606

surfaceRegion outMassFlow write:
    sum(outlet) of phi = 0.03252068

surfaceRegion inPre write:
    weightedAverage(inlet) of phi = -0.0032520606
    weightedAverage(inlet) of U = (0.33673953 0 0)
    weightedAverage(inlet) of p = 1.53103

surfaceRegion outMax write:
    max(outlet) of U = (0.43721583 2.2044131e-08 0)
    max(outlet) of p = 0

Time = 3

Courant Number mean: 0.16866833 max: 0.218956
DILUPBiCG:  Solving for Ux, Initial residual = 0.023117408, Final residual = 6.1597455e-09, No Iterations 3
DILUPBiCG:  Solving for Uy, Initial residual = 0.011270428, Final residual = 1.9623582e-09, No Iterations 3
GAMG:  Solving for p, Initial residual = 6.5954412e-06, Final residual = 6.9256203e-07, No Iterations 1
time step continuity errors : sum local = 8.1788485e-09, global = 3.6899336e-09, cumulative = 2.3442591e-07
ExecutionTime = 0.09 s  ClockTime = 0 s

fieldMinMax minmaxdomain write:
    min(p) = 0 at location (9.9841283 -0.43458731 0.05)
    max(p) = 1.53103 at location (0 -0.43458731 0.05)
    min(U) = (0.14675742 0.00043808777 0) at location (0.049920641 -0.43458731 0.05)
    max(U) = (0.14675742 0.00043808777 0) at location (0.049920641 -0.43458731 0.05)

surfaceRegion inMassFlow write:
    sum(inlet) of phi = -0.032966771

surfaceRegion outMassFlow write:
    sum(outlet) of phi = 0.032966842

surfaceRegion inPre write:
    weightedAverage(inlet) of phi = -0.0032966771
    weightedAverage(inlet) of U = (0.34135942 0 0)
    weightedAverage(inlet) of p = 1.53103

surfaceRegion outMax write:
    max(outlet) of U = (0.44404857 1.9073122e-08 0)
    max(outlet) of p = 0

Time = 3.05

Courant Number mean: 0.17098259 max: 0.22237799
DILUPBiCG:  Solving for Ux, Initial residual = 0.022556935, Final residual = 7.8783829e-09, No Iterations 3
DILUPBiCG:  Solving for Uy, Initial residual = 0.010938496, Final residual = 1.9641499e-09, No Iterations 3
GAMG:  Solving for p, Initial residual = 6.4933044e-06, Final residual = 6.8195594e-07, No Iterations 1
time step continuity errors : sum local = 8.0465502e-09, global = 3.5607373e-09, cumulative = 2.3798665e-07
ExecutionTime = 0.09 s  ClockTime = 0 s

fieldMinMax minmaxdomain write:
    min(p) = 0 at location (9.9841283 -0.43458731 0.05)
    max(p) = 1.53103 at location (0 -0.43458731 0.05)
    min(U) = (0.14806061 0.00043755217 0) at location (0.049920641 -0.43458731 0.05)
    max(U) = (0.14806061 0.00043755217 0) at location (0.049920641 -0.43458731 0.05)

surfaceRegion inMassFlow write:
    sum(inlet) of phi = -0.033410378

surfaceRegion outMassFlow write:
    sum(outlet) of phi = 0.033410446

surfaceRegion inPre write:
    weightedAverage(inlet) of phi = -0.0033410378
    weightedAverage(inlet) of U = (0.34595281 0 0)
    weightedAverage(inlet) of p = 1.53103

surfaceRegion outMax write:
    max(outlet) of U = (0.45085333 1.6154192e-08 0)
    max(outlet) of p = 0

Time = 3.1

Courant Number mean: 0.17328358 max: 0.22578597
DILUPBiCG:  Solving for Ux, Initial residual = 0.022019361, Final residual = 7.1522424e-12, No Iterations 4
DILUPBiCG:  Solving for Uy, Initial residual = 0.010622026, Final residual = 1.9642237e-09, No Iterations 3
GAMG:  Solving for p, Initial residual = 6.3896341e-06, Final residual = 6.7176241e-07, No Iterations 1
time step continuity errors : sum local = 7.9193899e-09, global = 3.4352933e-09, cumulative = 2.4142194e-07
ExecutionTime = 0.09 s  ClockTime = 0 s

fieldMinMax minmaxdomain write:
    min(p) = 0 at location (9.9841283 -0.43458731 0.05)
    max(p) = 1.53103 at location (0 -0.43458731 0.05)
    min(U) = (0.14935164 0.00043696197 0) at location (0.049920641 -0.43458731 0.05)
    max(U) = (0.14935164 0.00043696197 0) at location (0.049920641 -0.43458731 0.05)

surfaceRegion inMassFlow write:
    sum(inlet) of phi = -0.033851447

surfaceRegion outMassFlow write:
    sum(outlet) of phi = 0.033851514

surfaceRegion inPre write:
    weightedAverage(inlet) of phi = -0.0033851447
    weightedAverage(inlet) of U = (0.35051993 0 0)
    weightedAverage(inlet) of p = 1.53103

surfaceRegion outMax write:
    max(outlet) of U = (0.45762992 1.3598035e-08 0)
    max(outlet) of p = 0

Time = 3.15

Courant Number mean: 0.17557141 max: 0.22917983
[...]
DILUPBiCG:  Solving for Uy, Initial residual = 0.0020009883, Final residual = 8.2766836e-09, No Iterations 3
GAMG:  Solving for p, Initial residual = 1.7935404e-06, Final residual = 2.8294338e-07, No Iterations 1
time step continuity errors : sum local = 2.9548477e-09, global = -6.3132051e-10, cumulative = 3.1195475e-07
ExecutionTime = 0.4 s  ClockTime = 0 s

fieldMinMax minmaxdomain write:
    min(p) = 0 at location (9.9841283 -0.43458731 0.05)
    max(p) = 1.53103 at location (0 -0.43458731 0.05)
    min(U) = (0.32154992 0.00010298288 0) at location (0.049920641 -0.43458731 0.05)
    max(U) = (0.32154992 0.00010298288 0) at location (0.049920641 -0.43458731 0.05)

surfaceRegion inMassFlow write:
    sum(inlet) of phi = -0.10145981

surfaceRegion outMassFlow write:
    sum(outlet) of phi = 0.1014598

surfaceRegion inPre write:
    weightedAverage(inlet) of phi = -0.010145981
    weightedAverage(inlet) of U = (1.0505809 0 0)
    weightedAverage(inlet) of p = 1.53103

surfaceRegion outMax write:
    max(outlet) of U = (1.5331426 7.2671752e-07 0)
    max(outlet) of p = 0

Time = 19.3

Courant Number mean: 0.52616056 max: 0.76778994
DILUPBiCG:  Solving for Ux, Initial residual = 0.0010155755, Final residual = 2.708717e-09, No Iterations 3
DILUPBiCG:  Solving for Uy, Initial residual = 0.0020033028, Final residual = 8.3062869e-09, No Iterations 3
GAMG:  Solving for p, Initial residual = 1.7874421e-06, Final residual = 2.8208619e-07, No Iterations 1
time step continuity errors : sum local = 2.9455105e-09, global = -6.2731459e-10, cumulative = 3.1132743e-07
ExecutionTime = 0.4 s  ClockTime = 0 s

fieldMinMax minmaxdomain write:
    min(p) = 0 at location (9.9841283 -0.43458731 0.05)
    max(p) = 1.53103 at location (0 -0.43458731 0.05)
    min(U) = (0.32173495 0.0001024666 0) at location (0.049920641 -0.43458731 0.05)
    max(U) = (0.32173495 0.0001024666 0) at location (0.049920641 -0.43458731 0.05)

surfaceRegion inMassFlow write:
    sum(inlet) of phi = -0.10154008

surfaceRegion outMassFlow write:
    sum(outlet) of phi = 0.10154007

surfaceRegion inPre write:
    weightedAverage(inlet) of phi = -0.010154008
    weightedAverage(inlet) of U = (1.0514121 0 0)
    weightedAverage(inlet) of p = 1.53103

surfaceRegion outMax write:
    max(outlet) of U = (1.5344254 7.3276799e-07 0)
    max(outlet) of p = 0

Time = 19.35

Courant Number mean: 0.52657666 max: 0.76843234
DILUPBiCG:  Solving for Ux, Initial residual = 0.0010094988, Final residual = 2.7138939e-09, No Iterations 3
DILUPBiCG:  Solving for Uy, Initial residual = 0.0020056078, Final residual = 8.3358647e-09, No Iterations 3
GAMG:  Solving for p, Initial residual = 1.7813451e-06, Final residual = 2.8122715e-07, No Iterations 1
time step continuity errors : sum local = 2.9361585e-09, global = -6.2333438e-10, cumulative = 3.107041e-07
ExecutionTime = 0.4 s  ClockTime = 0 s

fieldMinMax minmaxdomain write:
    min(p) = 0 at location (9.9841283 -0.43458731 0.05)
    max(p) = 1.53103 at location (0 -0.43458731 0.05)
    min(U) = (0.32191901 0.0001019529 0) at location (0.049920641 -0.43458731 0.05)
    max(U) = (0.32191901 0.0001019529 0) at location (0.049920641 -0.43458731 0.05)

surfaceRegion inMassFlow write:
    sum(inlet) of phi = -0.10161994

surfaceRegion outMassFlow write:
    sum(outlet) of phi = 0.10161993

surfaceRegion inPre write:
    weightedAverage(inlet) of phi = -0.010161994
    weightedAverage(inlet) of U = (1.052239 0 0)
    weightedAverage(inlet) of p = 1.53103

surfaceRegion outMax write:
    max(outlet) of U = (1.5357016 7.3874876e-07 0)
    max(outlet) of p = 0

Time = 19.4

Courant Number mean: 0.52699065 max: 0.76907145
DILUPBiCG:  Solving for Ux, Initial residual = 0.0010034643, Final residual = 2.7191114e-09, No Iterations 3
DILUPBiCG:  Solving for Uy, Initial residual = 0.0020079061, Final residual = 8.3653545e-09, No Iterations 3
GAMG:  Solving for p, Initial residual = 1.7752482e-06, Final residual = 2.8036697e-07, No Iterations 1
time step continuity errors : sum local = 2.9267991e-09, global = -6.1937977e-10, cumulative = 3.1008472e-07
ExecutionTime = 0.4 s  ClockTime = 0 s

fieldMinMax minmaxdomain write:
    min(p) = 0 at location (9.9841283 -0.43458731 0.05)
    max(p) = 1.53103 at location (0 -0.43458731 0.05)
    min(U) = (0.32210209 0.00010144177 0) at location (0.049920641 -0.43458731 0.05)
    max(U) = (0.32210209 0.00010144177 0) at location (0.049920641 -0.43458731 0.05)

surfaceRegion inMassFlow write:
    sum(inlet) of phi = -0.10169939

surfaceRegion outMassFlow write:
    sum(outlet) of phi = 0.10169938

surfaceRegion inPre write:
    weightedAverage(inlet) of phi = -0.010169939
    weightedAverage(inlet) of U = (1.0530618 0 0)
    weightedAverage(inlet) of p = 1.53103

surfaceRegion outMax write:
    max(outlet) of U = (1.5369713 7.4465969e-07 0)
    max(outlet) of p = 0

Time = 19.45

Courant Number mean: 0.52740252 max: 0.7697073
DILUPBiCG:  Solving for Ux, Initial residual = 0.00099747178, Final residual = 2.7243685e-09, No Iterations 3
DILUPBiCG:  Solving for Uy, Initial residual = 0.0020102009, Final residual = 8.3948103e-09, No Iterations 3
GAMG:  Solving for p, Initial residual = 1.7691527e-06, Final residual = 2.7950544e-07, No Iterations 1
time step continuity errors : sum local = 2.9174298e-09, global = -6.1545064e-10, cumulative = 3.0946927e-07
ExecutionTime = 0.4 s  ClockTime = 0 s

fieldMinMax minmaxdomain write:
    min(p) = 0 at location (9.9841283 -0.43458731 0.05)
    max(p) = 1.53103 at location (0 -0.43458731 0.05)
    min(U) = (0.3222842 0.00010093318 0) at location (0.049920641 -0.43458731 0.05)
    max(U) = (0.3222842 0.00010093318 0) at location (0.049920641 -0.43458731 0.05)

surfaceRegion inMassFlow write:
    sum(inlet) of phi = -0.10177844

surfaceRegion outMassFlow write:
    sum(outlet) of phi = 0.10177843

surfaceRegion inPre write:
    weightedAverage(inlet) of phi = -0.010177844
    weightedAverage(inlet) of U = (1.0538803 0 0)
    weightedAverage(inlet) of p = 1.53103

surfaceRegion outMax write:
    max(outlet) of U = (1.5382345 7.5050072e-07 0)
    max(outlet) of p = 0

Time = 19.5

Courant Number mean: 0.52781229 max: 0.77033991
DILUPBiCG:  Solving for Ux, Initial residual = 0.00099152081, Final residual = 2.7296593e-09, No Iterations 3
DILUPBiCG:  Solving for Uy, Initial residual = 0.0020124865, Final residual = 8.4242424e-09, No Iterations 3
GAMG:  Solving for p, Initial residual = 1.7630588e-06, Final residual = 2.7864237e-07, No Iterations 1
time step continuity errors : sum local = 2.9080488e-09, global = -6.1154686e-10, cumulative = 3.0885772e-07
ExecutionTime = 0.4 s  ClockTime = 0 s

fieldMinMax minmaxdomain write:
    min(p) = 0 at location (9.9841283 -0.43458731 0.05)
    max(p) = 1.53103 at location (0 -0.43458731 0.05)
    min(U) = (0.32246534 0.00010042714 0) at location (0.049920641 -0.43458731 0.05)
    max(U) = (0.32246534 0.00010042714 0) at location (0.049920641 -0.43458731 0.05)

surfaceRegion inMassFlow write:
    sum(inlet) of phi = -0.10185709

surfaceRegion outMassFlow write:
    sum(outlet) of phi = 0.10185708

surfaceRegion inPre write:
    weightedAverage(inlet) of phi = -0.010185709
    weightedAverage(inlet) of U = (1.0546946 0 0)
    weightedAverage(inlet) of p = 1.53103

surfaceRegion outMax write:
    max(outlet) of U = (1.5394912 7.5627175e-07 0)
    max(outlet) of p = 0

Time = 19.55

Courant Number mean: 0.52821997 max: 0.77096929
DILUPBiCG:  Solving for Ux, Initial residual = 0.00098561104, Final residual = 2.7349937e-09, No Iterations 3
DILUPBiCG:  Solving for Uy, Initial residual = 0.0020147655, Final residual = 8.45372e-09, No Iterations 3
GAMG:  Solving for p, Initial residual = 1.756966e-06, Final residual = 2.7777759e-07, No Iterations 1
time step continuity errors : sum local = 2.8986543e-09, global = -6.0766835e-10, cumulative = 3.0825005e-07
ExecutionTime = 0.4 s  ClockTime = 0 s

fieldMinMax minmaxdomain write:
    min(p) = 0 at location (9.9841283 -0.43458731 0.05)
    max(p) = 1.53103 at location (0 -0.43458731 0.05)
    min(U) = (0.32264552 9.992363e-05 0) at location (0.049920641 -0.43458731 0.05)
    max(U) = (0.32264552 9.992363e-05 0) at location (0.049920641 -0.43458731 0.05)

surfaceRegion inMassFlow write:
    sum(inlet) of phi = -0.10193533

surfaceRegion outMassFlow write:
    sum(outlet) of phi = 0.10193532

surfaceRegion inPre write:
    weightedAverage(inlet) of phi = -0.010193533
    weightedAverage(inlet) of U = (1.0555048 0 0)
    weightedAverage(inlet) of p = 1.53103

surfaceRegion outMax write:
    max(outlet) of U = (1.5407416 7.6197272e-07 0)
    max(outlet) of p = 0

Time = 19.6

Courant Number mean: 0.52862558 max: 0.77159545
DILUPBiCG:  Solving for Ux, Initial residual = 0.00097974212, Final residual = 2.740361e-09, No Iterations 3
DILUPBiCG:  Solving for Uy, Initial residual = 0.0020170401, Final residual = 8.4842001e-09, No Iterations 3
GAMG:  Solving for p, Initial residual = 1.750876e-06, Final residual = 2.7691135e-07, No Iterations 1
time step continuity errors : sum local = 2.8892488e-09, global = -6.0381497e-10, cumulative = 3.0764624e-07
ExecutionTime = 0.4 s  ClockTime = 0 s

fieldMinMax minmaxdomain write:
    min(p) = 0 at location (9.9841283 -0.43458731 0.05)
    max(p) = 1.53103 at location (0 -0.43458731 0.05)
    min(U) = (0.32282475 9.9422634e-05 0) at location (0.049920641 -0.43458731 0.05)
    max(U) = (0.32282475 9.9422634e-05 0) at location (0.049920641 -0.43458731 0.05)

surfaceRegion inMassFlow write:
    sum(inlet) of phi = -0.10201318

surfaceRegion outMassFlow write:
    sum(outlet) of phi = 0.10201317

surfaceRegion inPre write:
    weightedAverage(inlet) of phi = -0.010201318
    weightedAverage(inlet) of U = (1.0563109 0 0)
    weightedAverage(inlet) of p = 1.53103

surfaceRegion outMax write:
    max(outlet) of U = (1.5419855 7.6760361e-07 0)
    max(outlet) of p = 0

Time = 19.65

Courant Number mean: 0.52902912 max: 0.77221842
DILUPBiCG:  Solving for Ux, Initial residual = 0.00097391372, Final residual = 2.7457681e-09, No Iterations 3
DILUPBiCG:  Solving for Uy, Initial residual = 0.0020193056, Final residual = 8.5148847e-09, No Iterations 3
GAMG:  Solving for p, Initial residual = 1.7447889e-06, Final residual = 2.7604876e-07, No Iterations 1
time step continuity errors : sum local = 2.8798858e-09, global = -5.999866e-10, cumulative = 3.0704625e-07
ExecutionTime = 0.4 s  ClockTime = 0 s

fieldMinMax minmaxdomain write:
    min(p) = 0 at location (9.9841283 -0.43458731 0.05)
    max(p) = 1.53103 at location (0 -0.43458731 0.05)
    min(U) = (0.32300303 9.8924141e-05 0) at location (0.049920641 -0.43458731 0.05)
    max(U) = (0.32300303 9.8924141e-05 0) at location (0.049920641 -0.43458731 0.05)

surfaceRegion inMassFlow write:
    sum(inlet) of phi = -0.10209063

surfaceRegion outMassFlow write:
    sum(outlet) of phi = 0.10209062

surfaceRegion inPre write:
    weightedAverage(inlet) of phi = -0.010209063
    weightedAverage(inlet) of U = (1.0571129 0 0)
    weightedAverage(inlet) of p = 1.53103

surfaceRegion outMax write:
    max(outlet) of U = (1.5432231 7.7316437e-07 0)
    max(outlet) of p = 0

Time = 19.7

Courant Number mean: 0.5294306 max: 0.77283822
DILUPBiCG:  Solving for Ux, Initial residual = 0.00096812548, Final residual = 2.7512097e-09, No Iterations 3
DILUPBiCG:  Solving for Uy, Initial residual = 0.0020215645, Final residual = 8.5458559e-09, No Iterations 3
GAMG:  Solving for p, Initial residual = 1.7387058e-06, Final residual = 2.7519379e-07, No Iterations 1
time step continuity errors : sum local = 2.8706064e-09, global = -5.9618311e-10, cumulative = 3.0645007e-07
ExecutionTime = 0.4 s  ClockTime = 0 s

fieldMinMax minmaxdomain write:
    min(p) = 0 at location (9.9841283 -0.43458731 0.05)
    max(p) = 1.53103 at location (0 -0.43458731 0.05)
    min(U) = (0.32318036 9.8428141e-05 0) at location (0.049920641 -0.43458731 0.05)
    max(U) = (0.32318036 9.8428141e-05 0) at location (0.049920641 -0.43458731 0.05)

surfaceRegion inMassFlow write:
    sum(inlet) of phi = -0.10216768

surfaceRegion outMassFlow write:
    sum(outlet) of phi = 0.10216767

surfaceRegion inPre write:
    weightedAverage(inlet) of phi = -0.010216768
    weightedAverage(inlet) of U = (1.0579107 0 0)
    weightedAverage(inlet) of p = 1.53103

surfaceRegion outMax write:
    max(outlet) of U = (1.5444545 7.7865499e-07 0)
    max(outlet) of p = 0

Time = 19.75

Courant Number mean: 0.52983004 max: 0.77345485
DILUPBiCG:  Solving for Ux, Initial residual = 0.00096237706, Final residual = 2.7566882e-09, No Iterations 3
DILUPBiCG:  Solving for Uy, Initial residual = 0.0020238184, Final residual = 8.5770724e-09, No Iterations 3
GAMG:  Solving for p, Initial residual = 1.7326258e-06, Final residual = 2.7433747e-07, No Iterations 1
time step continuity errors : sum local = 2.861317e-09, global = -5.9240437e-10, cumulative = 3.0585766e-07
ExecutionTime = 0.4 s  ClockTime = 0 s

fieldMinMax minmaxdomain write:
    min(p) = 0 at location (9.9841283 -0.43458731 0.05)
    max(p) = 1.53103 at location (0 -0.43458731 0.05)
    min(U) = (0.32335675 9.7934621e-05 0) at location (0.049920641 -0.43458731 0.05)
    max(U) = (0.32335675 9.7934621e-05 0) at location (0.049920641 -0.43458731 0.05)

surfaceRegion inMassFlow write:
    sum(inlet) of phi = -0.10224435

surfaceRegion outMassFlow write:
    sum(outlet) of phi = 0.10224434

surfaceRegion inPre write:
    weightedAverage(inlet) of phi = -0.010224435
    weightedAverage(inlet) of U = (1.0587046 0 0)
    weightedAverage(inlet) of p = 1.53103

surfaceRegion outMax write:
    max(outlet) of U = (1.5456795 7.8407548e-07 0)
    max(outlet) of p = 0

Time = 19.8

Courant Number mean: 0.53022744 max: 0.77406833
DILUPBiCG:  Solving for Ux, Initial residual = 0.00095666813, Final residual = 2.7622018e-09, No Iterations 3
DILUPBiCG:  Solving for Uy, Initial residual = 0.0020260632, Final residual = 8.6082678e-09, No Iterations 3
GAMG:  Solving for p, Initial residual = 1.7265476e-06, Final residual = 2.7347957e-07, No Iterations 1
time step continuity errors : sum local = 2.8520154e-09, global = -5.8865028e-10, cumulative = 3.0526901e-07
ExecutionTime = 0.41 s  ClockTime = 0 s

fieldMinMax minmaxdomain write:
    min(p) = 0 at location (9.9841283 -0.43458731 0.05)
    max(p) = 1.53103 at location (0 -0.43458731 0.05)
    min(U) = (0.32353222 9.7443569e-05 0) at location (0.049920641 -0.43458731 0.05)
    max(U) = (0.32353222 9.7443569e-05 0) at location (0.049920641 -0.43458731 0.05)

surfaceRegion inMassFlow write:
    sum(inlet) of phi = -0.10232062

surfaceRegion outMassFlow write:
    sum(outlet) of phi = 0.10232061

surfaceRegion inPre write:
    weightedAverage(inlet) of phi = -0.010232062
    weightedAverage(inlet) of U = (1.0594943 0 0)
    weightedAverage(inlet) of p = 1.53103

surfaceRegion outMax write:
    max(outlet) of U = (1.5468983 7.8942585e-07 0)
    max(outlet) of p = 0

Time = 19.85

Courant Number mean: 0.53062282 max: 0.77467869
DILUPBiCG:  Solving for Ux, Initial residual = 0.00095099836, Final residual = 2.7677503e-09, No Iterations 3
DILUPBiCG:  Solving for Uy, Initial residual = 0.002028301, Final residual = 8.6393781e-09, No Iterations 3
GAMG:  Solving for p, Initial residual = 1.7204719e-06, Final residual = 2.726204e-07, No Iterations 1
time step continuity errors : sum local = 2.8427046e-09, global = -5.8492071e-10, cumulative = 3.0468409e-07
ExecutionTime = 0.41 s  ClockTime = 0 s

fieldMinMax minmaxdomain write:
    min(p) = 0 at location (9.9841283 -0.43458731 0.05)
    max(p) = 1.53103 at location (0 -0.43458731 0.05)
    min(U) = (0.32370675 9.6954973e-05 0) at location (0.049920641 -0.43458731 0.05)
    max(U) = (0.32370675 9.6954973e-05 0) at location (0.049920641 -0.43458731 0.05)

surfaceRegion inMassFlow write:
    sum(inlet) of phi = -0.1023965

surfaceRegion outMassFlow write:
    sum(outlet) of phi = 0.10239649

surfaceRegion inPre write:
    weightedAverage(inlet) of phi = -0.01023965
    weightedAverage(inlet) of U = (1.0602801 0 0)
    weightedAverage(inlet) of p = 1.53103

surfaceRegion outMax write:
    max(outlet) of U = (1.5481108 7.9470614e-07 0)
    max(outlet) of p = 0

Time = 19.9

Courant Number mean: 0.53101618 max: 0.77528594
DILUPBiCG:  Solving for Ux, Initial residual = 0.00094536741, Final residual = 2.773334e-09, No Iterations 3
DILUPBiCG:  Solving for Uy, Initial residual = 0.0020305338, Final residual = 8.6704565e-09, No Iterations 3
GAMG:  Solving for p, Initial residual = 1.7144023e-06, Final residual = 2.7176001e-07, No Iterations 1
time step continuity errors : sum local = 2.8333854e-09, global = -5.8121555e-10, cumulative = 3.0410288e-07
ExecutionTime = 0.41 s  ClockTime = 0 s

fieldMinMax minmaxdomain write:
    min(p) = 0 at location (9.9841283 -0.43458731 0.05)
    max(p) = 1.53103 at location (0 -0.43458731 0.05)
    min(U) = (0.32388036 9.6468822e-05 0) at location (0.049920641 -0.43458731 0.05)
    max(U) = (0.32388036 9.6468822e-05 0) at location (0.049920641 -0.43458731 0.05)

surfaceRegion inMassFlow write:
    sum(inlet) of phi = -0.102472

surfaceRegion outMassFlow write:
    sum(outlet) of phi = 0.10247199

surfaceRegion inPre write:
    weightedAverage(inlet) of phi = -0.0102472
    weightedAverage(inlet) of U = (1.0610618 0 0)
    weightedAverage(inlet) of p = 1.53103

surfaceRegion outMax write:
    max(outlet) of U = (1.5493172 7.9991638e-07 0)
    max(outlet) of p = 0

Time = 19.95

Courant Number mean: 0.53140754 max: 0.77589009
DILUPBiCG:  Solving for Ux, Initial residual = 0.00093977497, Final residual = 2.7789512e-09, No Iterations 3
DILUPBiCG:  Solving for Uy, Initial residual = 0.0020327572, Final residual = 8.7015047e-09, No Iterations 3
GAMG:  Solving for p, Initial residual = 1.7083371e-06, Final residual = 2.7089833e-07, No Iterations 1
time step continuity errors : sum local = 2.8240566e-09, global = -5.7753466e-10, cumulative = 3.0352534e-07
ExecutionTime = 0.41 s  ClockTime = 0 s

fieldMinMax minmaxdomain write:
    min(p) = 0 at location (9.9841283 -0.43458731 0.05)
    max(p) = 1.53103 at location (0 -0.43458731 0.05)
    min(U) = (0.32405305 9.5985103e-05 0) at location (0.049920641 -0.43458731 0.05)
    max(U) = (0.32405305 9.5985103e-05 0) at location (0.049920641 -0.43458731 0.05)

surfaceRegion inMassFlow write:
    sum(inlet) of phi = -0.10254711

surfaceRegion outMassFlow write:
    sum(outlet) of phi = 0.1025471

surfaceRegion inPre write:
    weightedAverage(inlet) of phi = -0.010254711
    weightedAverage(inlet) of U = (1.0618396 0 0)
    weightedAverage(inlet) of p = 1.53103

surfaceRegion outMax write:
    max(outlet) of U = (1.5505174 8.0505663e-07 0)
    max(outlet) of p = 0

Time = 20

Courant Number mean: 0.53179691 max: 0.77649116
DILUPBiCG:  Solving for Ux, Initial residual = 0.0009342207, Final residual = 2.7846028e-09, No Iterations 3
DILUPBiCG:  Solving for Uy, Initial residual = 0.0020349733, Final residual = 8.7324674e-09, No Iterations 3
GAMG:  Solving for p, Initial residual = 1.7022756e-06, Final residual = 2.7003549e-07, No Iterations 1
time step continuity errors : sum local = 2.8147198e-09, global = -5.7387793e-10, cumulative = 3.0295147e-07
ExecutionTime = 0.41 s  ClockTime = 0 s

fieldMinMax minmaxdomain write:
    min(p) = 0 at location (9.9841283 -0.43458731 0.05)
    max(p) = 1.53103 at location (0 -0.43458731 0.05)
    min(U) = (0.32422483 9.5503804e-05 0) at location (0.049920641 -0.43458731 0.05)
    max(U) = (0.32422483 9.5503804e-05 0) at location (0.049920641 -0.43458731 0.05)

surfaceRegion inMassFlow write:
    sum(inlet) of phi = -0.10262184

surfaceRegion outMassFlow write:
    sum(outlet) of phi = 0.10262183

surfaceRegion inPre write:
    weightedAverage(inlet) of phi = -0.010262184
    weightedAverage(inlet) of U = (1.0626134 0 0)
    weightedAverage(inlet) of p = 1.53103

surfaceRegion outMax write:
    max(outlet) of U = (1.5517116 8.1012697e-07 0)
    max(outlet) of p = 0

End

